

--> FOAM FATAL ERROR: (openfoam-2412)
Cannot open file "constant/physicalProperties.steam"

    From int main(int, char**)
    in file foamDictionary.C at line 374.

FOAM exiting



--> FOAM FATAL ERROR: (openfoam-2412)
Cannot open file "constant/physicalProperties.steam"

    From int main(int, char**)
    in file foamDictionary.C at line 374.

FOAM exiting



--> FOAM FATAL ERROR: (openfoam-2412)
Cannot open file "constant/physicalProperties.water"

    From int main(int, char**)
    in file foamDictionary.C at line 374.

FOAM exiting



--> FOAM FATAL ERROR: (openfoam-2412)
Cannot open file "constant/physicalProperties.water"

    From int main(int, char**)
    in file foamDictionary.C at line 374.

FOAM exiting



--> FOAM FATAL ERROR: (openfoam-2412)
Cannot open file "constant/physicalProperties.water"

    From int main(int, char**)
    in file foamDictionary.C at line 374.

FOAM exiting



--> FOAM FATAL ERROR: (openfoam-2412)
Cannot open file "constant/physicalProperties.water"

    From int main(int, char**)
    in file foamDictionary.C at line 374.

FOAM exiting



--> FOAM FATAL ERROR: (openfoam-2412)
Cannot open file "constant/physicalProperties.steam"

    From int main(int, char**)
    in file foamDictionary.C at line 374.

FOAM exiting



--> FOAM FATAL ERROR: (openfoam-2412)
Cannot open file "constant/physicalProperties.steam"

    From int main(int, char**)
    in file foamDictionary.C at line 374.

FOAM exiting



--> FOAM FATAL ERROR: (openfoam-2412)
Cannot open file "constant/physicalProperties.water"

    From int main(int, char**)
    in file foamDictionary.C at line 374.

FOAM exiting



--> FOAM FATAL ERROR: (openfoam-2412)
Cannot open file "constant/physicalProperties.water"

    From int main(int, char**)
    in file foamDictionary.C at line 374.

FOAM exiting



--> FOAM FATAL ERROR: (openfoam-2412)
Cannot open file "constant/physicalProperties.water"

    From int main(int, char**)
    in file foamDictionary.C at line 374.

FOAM exiting



--> FOAM FATAL ERROR: (openfoam-2412)
Cannot open file "constant/physicalProperties.water"

    From int main(int, char**)
    in file foamDictionary.C at line 374.

FOAM exiting

