chemFoam: symbol lookup error: chemFoam: undefined symbol: _ZNK4Foam6fvMesh11writeObjectENS_14IOstreamOption12streamFormatENS1_13versionNumberENS1_15compressionTypeEb
