/*---------------------------------------------------------------------------*\
  =========                 |
  \\      /  F ield         | OpenFOAM: The Open Source CFD Toolbox
   \\    /   O peration     | Website:  https://openfoam.org
    \\  /    A nd           | Version:  12
     \\/     M anipulation  |
\*---------------------------------------------------------------------------*/
Build  : 12-0b487fc98b88
Exec   : zeroDimensionalMesh
Date   : Jun 23 2026
Time   : 23:49:00
Host   : "kol-serv"
PID    : 1806532
I/O    : uncollated
Case   : /home/kol/OpenFOAM/OpenFOAM-12/test/multiphaseEuler/populationBalance/binaryBreakup
nProcs : 1
sigFpe : Enabling floating point exception trapping (FOAM_SIGFPE).
fileModificationChecking : Monitoring run-time modified files using timeStampMaster (fileModificationSkew 10)
allowSystemOperations : Allowing user-supplied system call operations

// * * * * * * * * * * * * * * * * * * * * * * * * * * * * * * * * * * * * * //
Create time

End

