/*---------------------------------------------------------------------------*\
  =========                 |
  \\      /  F ield         | OpenFOAM: The Open Source CFD Toolbox
   \\    /   O peration     | Website:  https://openfoam.org
    \\  /    A nd           | Version:  12
     \\/     M anipulation  |
\*---------------------------------------------------------------------------*/
Build  : 12-0b487fc98b88
Exec   : foamRun
Date   : Jun 05 2026
Time   : 11:00:54
Host   : "kol-serv"
PID    : 11306
I/O    : uncollated
Case   : /home/kol/OpenFOAM/kol-12/run/cavity/pitzDailySteady
nProcs : 1
sigFpe : Enabling floating point exception trapping (FOAM_SIGFPE).
fileModificationChecking : Monitoring run-time modified files using timeStampMaster (fileModificationSkew 10)
allowSystemOperations : Allowing user-supplied system call operations

// * * * * * * * * * * * * * * * * * * * * * * * * * * * * * * * * * * * * * //
Create time

Create mesh for time = 0

Selecting solver incompressibleFluid
Selecting viscosity model constant
Selecting turbulence model type RAS
Selecting RAS turbulence model kEpsilon
Selecting generalised Newtonian model Newtonian
RAS
{
    model           kEpsilon;
    turbulence      on;
    printCoeffs     on;
    viscosityModel  Newtonian;
    Cmu             0.09;
    C1              1.44;
    C2              1.92;
    C3              0;
    sigmak          1;
    sigmaEps        1.3;
}

No MRF models present


SIMPLE: Convergence criteria found
        p: tolerance 0.01
        U: tolerance 0.001
        "(k|epsilon|omega|f|v2)": tolerance 0.001


SIMPLE: Operating solver in steady-state mode with 1 outer corrector
SIMPLE: Operating solver in SIMPLE mode



Starting time loop

streamlines streamlines:
    automatic track length specified through number of sub cycles : 5

streamlines streamlines write:
    Seeded 10 particles
    Sampled 114 locations
Time = 1s

smoothSolver:  Solving for Ux, Initial residual = 1, Final residual = 0.0538101, No Iterations 1
smoothSolver:  Solving for Uy, Initial residual = 1, Final residual = 0.030925, No Iterations 2
GAMG:  Solving for p, Initial residual = 1, Final residual = 0.068427, No Iterations 17
time step continuity errors : sum local = 1.19733, global = 0.179883, cumulative = 0.179883
smoothSolver:  Solving for epsilon, Initial residual = 0.232889, Final residual = 0.0114607, No Iterations 3
smoothSolver:  Solving for k, Initial residual = 1, Final residual = 0.045463, No Iterations 3
ExecutionTime = 0.473336 s  ClockTime = 1 s

Time = 2s

smoothSolver:  Solving for Ux, Initial residual = 0.442439, Final residual = 0.0304776, No Iterations 5
smoothSolver:  Solving for Uy, Initial residual = 0.293363, Final residual = 0.0257277, No Iterations 4
GAMG:  Solving for p, Initial residual = 0.0522866, Final residual = 0.0043522, No Iterations 15
time step continuity errors : sum local = 3.97243, global = 0.123316, cumulative = 0.303199
smoothSolver:  Solving for epsilon, Initial residual = 0.177004, Final residual = 0.0103032, No Iterations 3
smoothSolver:  Solving for k, Initial residual = 0.446455, Final residual = 0.0395205, No Iterations 3
ExecutionTime = 0.538152 s  ClockTime = 1 s

Time = 3s

smoothSolver:  Solving for Ux, Initial residual = 0.136548, Final residual = 0.00964649, No Iterations 4
smoothSolver:  Solving for Uy, Initial residual = 0.314051, Final residual = 0.0227517, No Iterations 3
GAMG:  Solving for p, Initial residual = 0.137792, Final residual = 0.0118874, No Iterations 6
time step continuity errors : sum local = 3.32338, global = 0.322775, cumulative = 0.625974
smoothSolver:  Solving for epsilon, Initial residual = 0.181476, Final residual = 0.00934332, No Iterations 2
smoothSolver:  Solving for k, Initial residual = 0.217367, Final residual = 0.0133722, No Iterations 4
ExecutionTime = 0.576224 s  ClockTime = 1 s

Time = 4s

smoothSolver:  Solving for Ux, Initial residual = 0.249431, Final residual = 0.0203466, No Iterations 2
smoothSolver:  Solving for Uy, Initial residual = 0.36268, Final residual = 0.0234389, No Iterations 2
GAMG:  Solving for p, Initial residual = 0.110979, Final residual = 0.00850432, No Iterations 6
time step continuity errors : sum local = 1.42316, global = 0.131344, cumulative = 0.757319
smoothSolver:  Solving for epsilon, Initial residual = 0.344284, Final residual = 0.0194948, No Iterations 1
smoothSolver:  Solving for k, Initial residual = 0.377527, Final residual = 0.0364438, No Iterations 4
ExecutionTime = 0.612441 s  ClockTime = 1 s

Time = 5s

smoothSolver:  Solving for Ux, Initial residual = 0.0630117, Final residual = 0.00399602, No Iterations 5
smoothSolver:  Solving for Uy, Initial residual = 0.103899, Final residual = 0.00807085, No Iterations 4
GAMG:  Solving for p, Initial residual = 0.104452, Final residual = 0.00960097, No Iterations 3
time step continuity errors : sum local = 1.3488, global = -0.00484447, cumulative = 0.752474
smoothSolver:  Solving for epsilon, Initial residual = 0.112843, Final residual = 0.00949757, No Iterations 2
smoothSolver:  Solving for k, Initial residual = 0.0967172, Final residual = 0.00687911, No Iterations 4
ExecutionTime = 0.647098 s  ClockTime = 1 s

Time = 6s

smoothSolver:  Solving for Ux, Initial residual = 0.112474, Final residual = 0.00947683, No Iterations 3
smoothSolver:  Solving for Uy, Initial residual = 0.166239, Final residual = 0.0127883, No Iterations 3
GAMG:  Solving for p, Initial residual = 0.0777314, Final residual = 0.00703838, No Iterations 3
time step continuity errors : sum local = 1.21034, global = 0.0414945, cumulative = 0.793969
smoothSolver:  Solving for epsilon, Initial residual = 0.170245, Final residual = 0.00625565, No Iterations 2
smoothSolver:  Solving for k, Initial residual = 0.107602, Final residual = 0.00827295, No Iterations 5
ExecutionTime = 0.68099 s  ClockTime = 1 s

Time = 7s

smoothSolver:  Solving for Ux, Initial residual = 0.047485, Final residual = 0.00379487, No Iterations 5
smoothSolver:  Solving for Uy, Initial residual = 0.0634722, Final residual = 0.00434749, No Iterations 5
GAMG:  Solving for p, Initial residual = 0.0708036, Final residual = 0.00657319, No Iterations 3
time step continuity errors : sum local = 1.03488, global = 0.0514581, cumulative = 0.845427
smoothSolver:  Solving for epsilon, Initial residual = 0.0488464, Final residual = 0.00350339, No Iterations 3
smoothSolver:  Solving for k, Initial residual = 0.0640119, Final residual = 0.00569082, No Iterations 4
ExecutionTime = 0.716538 s  ClockTime = 1 s

Time = 8s

smoothSolver:  Solving for Ux, Initial residual = 0.044115, Final residual = 0.00376501, No Iterations 5
smoothSolver:  Solving for Uy, Initial residual = 0.0580375, Final residual = 0.00409418, No Iterations 5
GAMG:  Solving for p, Initial residual = 0.0625118, Final residual = 0.0048515, No Iterations 3
time step continuity errors : sum local = 0.742047, global = 0.0386249, cumulative = 0.884052
smoothSolver:  Solving for epsilon, Initial residual = 0.0445159, Final residual = 0.003654, No Iterations 3
smoothSolver:  Solving for k, Initial residual = 0.0565443, Final residual = 0.00521506, No Iterations 4
ExecutionTime = 0.75217 s  ClockTime = 1 s

Time = 9s

smoothSolver:  Solving for Ux, Initial residual = 0.0408697, Final residual = 0.00365973, No Iterations 5
smoothSolver:  Solving for Uy, Initial residual = 0.0538512, Final residual = 0.00398124, No Iterations 5
GAMG:  Solving for p, Initial residual = 0.0567787, Final residual = 0.0036573, No Iterations 3
time step continuity errors : sum local = 0.547659, global = 0.00645812, cumulative = 0.89051
smoothSolver:  Solving for epsilon, Initial residual = 0.0448464, Final residual = 0.00388275, No Iterations 3
smoothSolver:  Solving for k, Initial residual = 0.0521206, Final residual = 0.00489726, No Iterations 4
ExecutionTime = 0.787786 s  ClockTime = 1 s

Time = 10s

smoothSolver:  Solving for Ux, Initial residual = 0.0382717, Final residual = 0.00352143, No Iterations 5
smoothSolver:  Solving for Uy, Initial residual = 0.0500474, Final residual = 0.00386988, No Iterations 5
GAMG:  Solving for p, Initial residual = 0.051378, Final residual = 0.00318725, No Iterations 3
time step continuity errors : sum local = 0.473598, global = 0.00759273, cumulative = 0.898103
smoothSolver:  Solving for epsilon, Initial residual = 0.0427165, Final residual = 0.00404256, No Iterations 3
smoothSolver:  Solving for k, Initial residual = 0.0491554, Final residual = 0.00463641, No Iterations 4
ExecutionTime = 0.823355 s  ClockTime = 1 s

Time = 11s

smoothSolver:  Solving for Ux, Initial residual = 0.0360596, Final residual = 0.00337503, No Iterations 5
smoothSolver:  Solving for Uy, Initial residual = 0.0473348, Final residual = 0.00374945, No Iterations 5
GAMG:  Solving for p, Initial residual = 0.0485739, Final residual = 0.00453606, No Iterations 2
time step continuity errors : sum local = 0.693212, global = 0.0119392, cumulative = 0.910042
smoothSolver:  Solving for epsilon, Initial residual = 0.0400243, Final residual = 0.00249219, No Iterations 4
smoothSolver:  Solving for k, Initial residual = 0.0463097, Final residual = 0.00431799, No Iterations 4
ExecutionTime = 0.858192 s  ClockTime = 1 s

Time = 12s

smoothSolver:  Solving for Ux, Initial residual = 0.0339785, Final residual = 0.00323481, No Iterations 5
smoothSolver:  Solving for Uy, Initial residual = 0.0457871, Final residual = 0.00373482, No Iterations 5
GAMG:  Solving for p, Initial residual = 0.0484009, Final residual = 0.0034242, No Iterations 3
time step continuity errors : sum local = 0.505202, global = 0.00727354, cumulative = 0.917315
smoothSolver:  Solving for epsilon, Initial residual = 0.0390926, Final residual = 0.0024565, No Iterations 4
smoothSolver:  Solving for k, Initial residual = 0.0437047, Final residual = 0.00400141, No Iterations 4
ExecutionTime = 0.894785 s  ClockTime = 1 s

Time = 13s

smoothSolver:  Solving for Ux, Initial residual = 0.0321569, Final residual = 0.00307703, No Iterations 5
smoothSolver:  Solving for Uy, Initial residual = 0.0447654, Final residual = 0.00357654, No Iterations 5
GAMG:  Solving for p, Initial residual = 0.0471381, Final residual = 0.00429299, No Iterations 2
time step continuity errors : sum local = 0.599171, global = 0.00816046, cumulative = 0.925476
smoothSolver:  Solving for epsilon, Initial residual = 0.0380703, Final residual = 0.00234927, No Iterations 4
smoothSolver:  Solving for k, Initial residual = 0.0411286, Final residual = 0.00367854, No Iterations 4
ExecutionTime = 0.929814 s  ClockTime = 1 s

Time = 14s

smoothSolver:  Solving for Ux, Initial residual = 0.0306989, Final residual = 0.00294529, No Iterations 5
smoothSolver:  Solving for Uy, Initial residual = 0.0438669, Final residual = 0.00356478, No Iterations 5
GAMG:  Solving for p, Initial residual = 0.0491002, Final residual = 0.00478751, No Iterations 2
time step continuity errors : sum local = 0.676495, global = 0.0108353, cumulative = 0.936311
smoothSolver:  Solving for epsilon, Initial residual = 0.0368864, Final residual = 0.00223963, No Iterations 4
smoothSolver:  Solving for k, Initial residual = 0.0389515, Final residual = 0.00342309, No Iterations 4
ExecutionTime = 0.96451 s  ClockTime = 1 s

Time = 15s

smoothSolver:  Solving for Ux, Initial residual = 0.0293334, Final residual = 0.00280811, No Iterations 5
smoothSolver:  Solving for Uy, Initial residual = 0.0434542, Final residual = 0.00355738, No Iterations 5
GAMG:  Solving for p, Initial residual = 0.0471047, Final residual = 0.00355195, No Iterations 3
time step continuity errors : sum local = 0.465869, global = -0.00618262, cumulative = 0.930129
smoothSolver:  Solving for epsilon, Initial residual = 0.0340247, Final residual = 0.00211837, No Iterations 4
smoothSolver:  Solving for k, Initial residual = 0.0367581, Final residual = 0.00318745, No Iterations 4
ExecutionTime = 1.00181 s  ClockTime = 1 s

Time = 16s

smoothSolver:  Solving for Ux, Initial residual = 0.0276761, Final residual = 0.00264755, No Iterations 5
smoothSolver:  Solving for Uy, Initial residual = 0.0427793, Final residual = 0.00352344, No Iterations 5
GAMG:  Solving for p, Initial residual = 0.0441866, Final residual = 0.00407125, No Iterations 2
time step continuity errors : sum local = 0.503235, global = 0.00277878, cumulative = 0.932907
smoothSolver:  Solving for epsilon, Initial residual = 0.0307684, Final residual = 0.00194631, No Iterations 4
smoothSolver:  Solving for k, Initial residual = 0.0344865, Final residual = 0.00293747, No Iterations 4
ExecutionTime = 1.03652 s  ClockTime = 1 s

Time = 17s

smoothSolver:  Solving for Ux, Initial residual = 0.0261092, Final residual = 0.00253613, No Iterations 5
smoothSolver:  Solving for Uy, Initial residual = 0.0416703, Final residual = 0.00352088, No Iterations 5
GAMG:  Solving for p, Initial residual = 0.0434804, Final residual = 0.00279601, No Iterations 3
time step continuity errors : sum local = 0.340043, global = 0.00139222, cumulative = 0.9343
smoothSolver:  Solving for epsilon, Initial residual = 0.0289851, Final residual = 0.00179935, No Iterations 4
smoothSolver:  Solving for k, Initial residual = 0.0327161, Final residual = 0.00274038, No Iterations 4
ExecutionTime = 1.0724 s  ClockTime = 1 s

Time = 18s

smoothSolver:  Solving for Ux, Initial residual = 0.0247105, Final residual = 0.00241784, No Iterations 5
smoothSolver:  Solving for Uy, Initial residual = 0.04072, Final residual = 0.00349021, No Iterations 5
GAMG:  Solving for p, Initial residual = 0.0399879, Final residual = 0.00273789, No Iterations 3
time step continuity errors : sum local = 0.318257, global = -0.00515904, cumulative = 0.929141
smoothSolver:  Solving for epsilon, Initial residual = 0.0266957, Final residual = 0.00164689, No Iterations 4
smoothSolver:  Solving for k, Initial residual = 0.0307466, Final residual = 0.00253183, No Iterations 4
ExecutionTime = 1.10838 s  ClockTime = 1 s

Time = 19s

smoothSolver:  Solving for Ux, Initial residual = 0.0235293, Final residual = 0.00230993, No Iterations 5
smoothSolver:  Solving for Uy, Initial residual = 0.0395054, Final residual = 0.0034507, No Iterations 5
GAMG:  Solving for p, Initial residual = 0.0384258, Final residual = 0.00266111, No Iterations 3
time step continuity errors : sum local = 0.297823, global = -0.00484985, cumulative = 0.924291
smoothSolver:  Solving for epsilon, Initial residual = 0.0250646, Final residual = 0.00149787, No Iterations 4
smoothSolver:  Solving for k, Initial residual = 0.0290686, Final residual = 0.00234615, No Iterations 4
ExecutionTime = 1.14444 s  ClockTime = 1 s

Time = 20s

smoothSolver:  Solving for Ux, Initial residual = 0.0224509, Final residual = 0.00220478, No Iterations 5
smoothSolver:  Solving for Uy, Initial residual = 0.038442, Final residual = 0.00341191, No Iterations 5
GAMG:  Solving for p, Initial residual = 0.0374525, Final residual = 0.00277553, No Iterations 3
time step continuity errors : sum local = 0.304685, global = -0.00674324, cumulative = 0.917547
smoothSolver:  Solving for epsilon, Initial residual = 0.023531, Final residual = 0.00231802, No Iterations 3
smoothSolver:  Solving for k, Initial residual = 0.0275505, Final residual = 0.00219267, No Iterations 4
ExecutionTime = 1.17996 s  ClockTime = 1 s

Time = 21s

smoothSolver:  Solving for Ux, Initial residual = 0.0212951, Final residual = 0.0020913, No Iterations 5
smoothSolver:  Solving for Uy, Initial residual = 0.0372663, Final residual = 0.00336252, No Iterations 5
GAMG:  Solving for p, Initial residual = 0.035883, Final residual = 0.00294379, No Iterations 3
time step continuity errors : sum local = 0.309722, global = -0.00941507, cumulative = 0.908132
smoothSolver:  Solving for epsilon, Initial residual = 0.0223932, Final residual = 0.00219613, No Iterations 3
smoothSolver:  Solving for k, Initial residual = 0.0261891, Final residual = 0.00207031, No Iterations 4
ExecutionTime = 1.2154 s  ClockTime = 1 s

Time = 22s

smoothSolver:  Solving for Ux, Initial residual = 0.0201598, Final residual = 0.00198162, No Iterations 5
smoothSolver:  Solving for Uy, Initial residual = 0.0362053, Final residual = 0.00330202, No Iterations 5
GAMG:  Solving for p, Initial residual = 0.0352624, Final residual = 0.00294166, No Iterations 3
time step continuity errors : sum local = 0.302095, global = -0.00953969, cumulative = 0.898593
smoothSolver:  Solving for epsilon, Initial residual = 0.0214074, Final residual = 0.00207029, No Iterations 3
smoothSolver:  Solving for k, Initial residual = 0.0251301, Final residual = 0.001972, No Iterations 4
ExecutionTime = 1.25087 s  ClockTime = 1 s

Time = 23s

smoothSolver:  Solving for Ux, Initial residual = 0.0190723, Final residual = 0.00187717, No Iterations 5
smoothSolver:  Solving for Uy, Initial residual = 0.0351058, Final residual = 0.00323851, No Iterations 5
GAMG:  Solving for p, Initial residual = 0.0331713, Final residual = 0.00297909, No Iterations 3
time step continuity errors : sum local = 0.290946, global = -0.0120144, cumulative = 0.886578
smoothSolver:  Solving for epsilon, Initial residual = 0.0202524, Final residual = 0.00195013, No Iterations 3
smoothSolver:  Solving for k, Initial residual = 0.0241246, Final residual = 0.00187506, No Iterations 4
ExecutionTime = 1.28655 s  ClockTime = 2 s

Time = 24s

smoothSolver:  Solving for Ux, Initial residual = 0.0180552, Final residual = 0.00177722, No Iterations 5
smoothSolver:  Solving for Uy, Initial residual = 0.0339955, Final residual = 0.00316691, No Iterations 5
GAMG:  Solving for p, Initial residual = 0.032842, Final residual = 0.00285213, No Iterations 3
time step continuity errors : sum local = 0.271895, global = -0.0101919, cumulative = 0.876386
smoothSolver:  Solving for epsilon, Initial residual = 0.0193384, Final residual = 0.00183904, No Iterations 3
smoothSolver:  Solving for k, Initial residual = 0.023259, Final residual = 0.00179864, No Iterations 4
ExecutionTime = 1.32222 s  ClockTime = 2 s

Time = 25s

smoothSolver:  Solving for Ux, Initial residual = 0.0170916, Final residual = 0.00168241, No Iterations 5
smoothSolver:  Solving for Uy, Initial residual = 0.0329748, Final residual = 0.00309568, No Iterations 5
GAMG:  Solving for p, Initial residual = 0.0321121, Final residual = 0.0028641, No Iterations 3
time step continuity errors : sum local = 0.267312, global = -0.0125949, cumulative = 0.863791
smoothSolver:  Solving for epsilon, Initial residual = 0.0184711, Final residual = 0.00173817, No Iterations 3
smoothSolver:  Solving for k, Initial residual = 0.0224822, Final residual = 0.00172706, No Iterations 4
ExecutionTime = 1.35772 s  ClockTime = 2 s

Time = 26s

smoothSolver:  Solving for Ux, Initial residual = 0.016189, Final residual = 0.00159107, No Iterations 5
smoothSolver:  Solving for Uy, Initial residual = 0.0320532, Final residual = 0.00302108, No Iterations 5
GAMG:  Solving for p, Initial residual = 0.0304803, Final residual = 0.00289764, No Iterations 3
time step continuity errors : sum local = 0.259082, global = -0.0141626, cumulative = 0.849629
smoothSolver:  Solving for epsilon, Initial residual = 0.0175539, Final residual = 0.00162935, No Iterations 3
smoothSolver:  Solving for k, Initial residual = 0.0218484, Final residual = 0.00166581, No Iterations 4
ExecutionTime = 1.39311 s  ClockTime = 2 s

Time = 27s

smoothSolver:  Solving for Ux, Initial residual = 0.015306, Final residual = 0.00150353, No Iterations 5
smoothSolver:  Solving for Uy, Initial residual = 0.0311611, Final residual = 0.00294357, No Iterations 5
GAMG:  Solving for p, Initial residual = 0.0302865, Final residual = 0.00283682, No Iterations 3
time step continuity errors : sum local = 0.247646, global = -0.0120329, cumulative = 0.837596
smoothSolver:  Solving for epsilon, Initial residual = 0.0168067, Final residual = 0.00155402, No Iterations 3
smoothSolver:  Solving for k, Initial residual = 0.0210907, Final residual = 0.00159525, No Iterations 4
ExecutionTime = 1.42854 s  ClockTime = 2 s

Time = 28s

smoothSolver:  Solving for Ux, Initial residual = 0.0144539, Final residual = 0.00141942, No Iterations 5
smoothSolver:  Solving for Uy, Initial residual = 0.0302863, Final residual = 0.00286751, No Iterations 5
GAMG:  Solving for p, Initial residual = 0.0302671, Final residual = 0.00292392, No Iterations 3
time step continuity errors : sum local = 0.249899, global = -0.0135819, cumulative = 0.824014
smoothSolver:  Solving for epsilon, Initial residual = 0.0160707, Final residual = 0.0014792, No Iterations 3
smoothSolver:  Solving for k, Initial residual = 0.0204784, Final residual = 0.0015362, No Iterations 4
ExecutionTime = 1.46411 s  ClockTime = 2 s

Time = 29s

smoothSolver:  Solving for Ux, Initial residual = 0.0136409, Final residual = 0.00133897, No Iterations 5
smoothSolver:  Solving for Uy, Initial residual = 0.0293078, Final residual = 0.00279582, No Iterations 5
GAMG:  Solving for p, Initial residual = 0.0286399, Final residual = 0.0020078, No Iterations 4
time step continuity errors : sum local = 0.165225, global = 0.0257087, cumulative = 0.849723
smoothSolver:  Solving for epsilon, Initial residual = 0.0155004, Final residual = 0.00140766, No Iterations 3
smoothSolver:  Solving for k, Initial residual = 0.02001, Final residual = 0.00149171, No Iterations 4
ExecutionTime = 1.50087 s  ClockTime = 2 s

Time = 30s

smoothSolver:  Solving for Ux, Initial residual = 0.0128103, Final residual = 0.00125772, No Iterations 5
smoothSolver:  Solving for Uy, Initial residual = 0.0285975, Final residual = 0.00273236, No Iterations 5
GAMG:  Solving for p, Initial residual = 0.0288491, Final residual = 0.00273132, No Iterations 3
time step continuity errors : sum local = 0.217876, global = -0.0223168, cumulative = 0.827406
smoothSolver:  Solving for epsilon, Initial residual = 0.0147823, Final residual = 0.00133597, No Iterations 3
smoothSolver:  Solving for k, Initial residual = 0.0193303, Final residual = 0.00143417, No Iterations 4
ExecutionTime = 1.53632 s  ClockTime = 2 s

Time = 31s

smoothSolver:  Solving for Ux, Initial residual = 0.0121252, Final residual = 0.00119225, No Iterations 5
smoothSolver:  Solving for Uy, Initial residual = 0.0277444, Final residual = 0.00266309, No Iterations 5
GAMG:  Solving for p, Initial residual = 0.029409, Final residual = 0.00210563, No Iterations 4
time step continuity errors : sum local = 0.165211, global = 0.0207142, cumulative = 0.84812
smoothSolver:  Solving for epsilon, Initial residual = 0.0141251, Final residual = 0.00128209, No Iterations 3
smoothSolver:  Solving for k, Initial residual = 0.018768, Final residual = 0.00138438, No Iterations 4
ExecutionTime = 1.57306 s  ClockTime = 2 s

Time = 32s

smoothSolver:  Solving for Ux, Initial residual = 0.0113565, Final residual = 0.00111576, No Iterations 5
smoothSolver:  Solving for Uy, Initial residual = 0.0269365, Final residual = 0.00259467, No Iterations 5
GAMG:  Solving for p, Initial residual = 0.0297566, Final residual = 0.00271795, No Iterations 3
time step continuity errors : sum local = 0.206776, global = -0.0222585, cumulative = 0.825862
smoothSolver:  Solving for epsilon, Initial residual = 0.0136091, Final residual = 0.00122909, No Iterations 3
smoothSolver:  Solving for k, Initial residual = 0.0182035, Final residual = 0.00134047, No Iterations 4
ExecutionTime = 1.60861 s  ClockTime = 2 s

Time = 33s

smoothSolver:  Solving for Ux, Initial residual = 0.0107183, Final residual = 0.00105612, No Iterations 5
smoothSolver:  Solving for Uy, Initial residual = 0.0262489, Final residual = 0.00253554, No Iterations 5
GAMG:  Solving for p, Initial residual = 0.0296203, Final residual = 0.00269704, No Iterations 3
time step continuity errors : sum local = 0.200119, global = 0.00393268, cumulative = 0.829794
smoothSolver:  Solving for epsilon, Initial residual = 0.0131516, Final residual = 0.00118383, No Iterations 3
smoothSolver:  Solving for k, Initial residual = 0.017755, Final residual = 0.00129953, No Iterations 4
ExecutionTime = 1.64398 s  ClockTime = 2 s

Time = 34s

smoothSolver:  Solving for Ux, Initial residual = 0.0100606, Final residual = 0.000991148, No Iterations 5
smoothSolver:  Solving for Uy, Initial residual = 0.0255641, Final residual = 0.00247114, No Iterations 5
GAMG:  Solving for p, Initial residual = 0.0303561, Final residual = 0.00265327, No Iterations 3
time step continuity errors : sum local = 0.190994, global = -0.0233654, cumulative = 0.806429
smoothSolver:  Solving for epsilon, Initial residual = 0.0126481, Final residual = 0.00114136, No Iterations 3
smoothSolver:  Solving for k, Initial residual = 0.0172226, Final residual = 0.00125463, No Iterations 4
ExecutionTime = 1.67948 s  ClockTime = 2 s

Time = 35s

smoothSolver:  Solving for Ux, Initial residual = 0.00946919, Final residual = 0.000935199, No Iterations 5
smoothSolver:  Solving for Uy, Initial residual = 0.0248361, Final residual = 0.00242425, No Iterations 5
GAMG:  Solving for p, Initial residual = 0.0296256, Final residual = 0.00243193, No Iterations 3
time step continuity errors : sum local = 0.171571, global = 0.0128207, cumulative = 0.81925
smoothSolver:  Solving for epsilon, Initial residual = 0.01213, Final residual = 0.00110596, No Iterations 3
smoothSolver:  Solving for k, Initial residual = 0.0168125, Final residual = 0.0012233, No Iterations 4
ExecutionTime = 1.71487 s  ClockTime = 2 s

Time = 36s

smoothSolver:  Solving for Ux, Initial residual = 0.00889895, Final residual = 0.000881534, No Iterations 5
smoothSolver:  Solving for Uy, Initial residual = 0.0241083, Final residual = 0.00236829, No Iterations 5
GAMG:  Solving for p, Initial residual = 0.0282784, Final residual = 0.00270615, No Iterations 3
time step continuity errors : sum local = 0.186584, global = -0.023182, cumulative = 0.796068
smoothSolver:  Solving for epsilon, Initial residual = 0.011749, Final residual = 0.00106938, No Iterations 3
smoothSolver:  Solving for k, Initial residual = 0.0163637, Final residual = 0.00118791, No Iterations 4
ExecutionTime = 1.75116 s  ClockTime = 2 s

Time = 37s

smoothSolver:  Solving for Ux, Initial residual = 0.00836566, Final residual = 0.000834212, No Iterations 5
smoothSolver:  Solving for Uy, Initial residual = 0.0234087, Final residual = 0.00232072, No Iterations 5
GAMG:  Solving for p, Initial residual = 0.0274326, Final residual = 0.00250643, No Iterations 3
time step continuity errors : sum local = 0.168071, global = 0.0187066, cumulative = 0.814774
smoothSolver:  Solving for epsilon, Initial residual = 0.0113676, Final residual = 0.00103872, No Iterations 3
smoothSolver:  Solving for k, Initial residual = 0.0159182, Final residual = 0.00115172, No Iterations 4
ExecutionTime = 1.78673 s  ClockTime = 2 s

Time = 38s

smoothSolver:  Solving for Ux, Initial residual = 0.00788198, Final residual = 0.000786881, No Iterations 5
smoothSolver:  Solving for Uy, Initial residual = 0.022932, Final residual = 0.00227865, No Iterations 5
GAMG:  Solving for p, Initial residual = 0.0269139, Final residual = 0.0025006, No Iterations 3
time step continuity errors : sum local = 0.164164, global = -0.0195864, cumulative = 0.795188
smoothSolver:  Solving for epsilon, Initial residual = 0.0109868, Final residual = 0.0010173, No Iterations 3
smoothSolver:  Solving for k, Initial residual = 0.0154982, Final residual = 0.00112375, No Iterations 4
ExecutionTime = 1.82252 s  ClockTime = 2 s

Time = 39s

smoothSolver:  Solving for Ux, Initial residual = 0.00743157, Final residual = 0.000477343, No Iterations 6
smoothSolver:  Solving for Uy, Initial residual = 0.0223175, Final residual = 0.00144629, No Iterations 6
GAMG:  Solving for p, Initial residual = 0.0264473, Final residual = 0.00221423, No Iterations 3
time step continuity errors : sum local = 0.141608, global = 0.0215136, cumulative = 0.816701
smoothSolver:  Solving for epsilon, Initial residual = 0.0106045, Final residual = 0.000975863, No Iterations 3
smoothSolver:  Solving for k, Initial residual = 0.0150795, Final residual = 0.00109071, No Iterations 4
ExecutionTime = 1.85891 s  ClockTime = 2 s

Time = 40s

smoothSolver:  Solving for Ux, Initial residual = 0.00703425, Final residual = 0.000453329, No Iterations 6
smoothSolver:  Solving for Uy, Initial residual = 0.0218511, Final residual = 0.00142076, No Iterations 6
GAMG:  Solving for p, Initial residual = 0.0261101, Final residual = 0.0017959, No Iterations 4
time step continuity errors : sum local = 0.11303, global = 0.0154219, cumulative = 0.832123
smoothSolver:  Solving for epsilon, Initial residual = 0.0102625, Final residual = 0.00094224, No Iterations 3
smoothSolver:  Solving for k, Initial residual = 0.0146113, Final residual = 0.00105583, No Iterations 4
ExecutionTime = 1.89671 s  ClockTime = 2 s

Time = 41s

smoothSolver:  Solving for Ux, Initial residual = 0.00662461, Final residual = 0.00042813, No Iterations 6
smoothSolver:  Solving for Uy, Initial residual = 0.0213288, Final residual = 0.0014026, No Iterations 6
GAMG:  Solving for p, Initial residual = 0.0258682, Final residual = 0.002045, No Iterations 3
time step continuity errors : sum local = 0.125005, global = -0.00753759, cumulative = 0.824586
smoothSolver:  Solving for epsilon, Initial residual = 0.0099227, Final residual = 0.000914874, No Iterations 3
smoothSolver:  Solving for k, Initial residual = 0.0142394, Final residual = 0.00102518, No Iterations 4
ExecutionTime = 1.93301 s  ClockTime = 2 s

Time = 42s

smoothSolver:  Solving for Ux, Initial residual = 0.00630328, Final residual = 0.000409687, No Iterations 6
smoothSolver:  Solving for Uy, Initial residual = 0.020944, Final residual = 0.00138491, No Iterations 6
GAMG:  Solving for p, Initial residual = 0.0255571, Final residual = 0.00213044, No Iterations 3
time step continuity errors : sum local = 0.128826, global = 0.0134094, cumulative = 0.837995
smoothSolver:  Solving for epsilon, Initial residual = 0.00961739, Final residual = 0.000899012, No Iterations 3
smoothSolver:  Solving for k, Initial residual = 0.0137808, Final residual = 0.000992681, No Iterations 4
ExecutionTime = 1.97038 s  ClockTime = 2 s

Time = 43s

smoothSolver:  Solving for Ux, Initial residual = 0.00599368, Final residual = 0.000391151, No Iterations 6
smoothSolver:  Solving for Uy, Initial residual = 0.0206078, Final residual = 0.00137553, No Iterations 6
GAMG:  Solving for p, Initial residual = 0.0247117, Final residual = 0.00229965, No Iterations 3
time step continuity errors : sum local = 0.135921, global = -0.00213155, cumulative = 0.835864
smoothSolver:  Solving for epsilon, Initial residual = 0.00926578, Final residual = 0.000865109, No Iterations 3
smoothSolver:  Solving for k, Initial residual = 0.0133911, Final residual = 0.000964578, No Iterations 4
ExecutionTime = 2.00711 s  ClockTime = 2 s

Time = 44s

smoothSolver:  Solving for Ux, Initial residual = 0.00571425, Final residual = 0.000373355, No Iterations 6
smoothSolver:  Solving for Uy, Initial residual = 0.0204498, Final residual = 0.00137068, No Iterations 6
GAMG:  Solving for p, Initial residual = 0.0253741, Final residual = 0.00211055, No Iterations 3
time step continuity errors : sum local = 0.121643, global = 0.00842304, cumulative = 0.844287
smoothSolver:  Solving for epsilon, Initial residual = 0.0089849, Final residual = 0.000827422, No Iterations 3
smoothSolver:  Solving for k, Initial residual = 0.0129893, Final residual = 0.000929764, No Iterations 4
ExecutionTime = 2.04349 s  ClockTime = 2 s

Time = 45s

smoothSolver:  Solving for Ux, Initial residual = 0.00546459, Final residual = 0.000358541, No Iterations 6
smoothSolver:  Solving for Uy, Initial residual = 0.0201263, Final residual = 0.00136395, No Iterations 6
GAMG:  Solving for p, Initial residual = 0.0249896, Final residual = 0.00199193, No Iterations 3
time step continuity errors : sum local = 0.114725, global = 0.00461276, cumulative = 0.848899
smoothSolver:  Solving for epsilon, Initial residual = 0.00866605, Final residual = 0.000793596, No Iterations 3
smoothSolver:  Solving for k, Initial residual = 0.0125588, Final residual = 0.000902337, No Iterations 4
ExecutionTime = 2.07999 s  ClockTime = 2 s

Time = 46s

smoothSolver:  Solving for Ux, Initial residual = 0.00524697, Final residual = 0.000345315, No Iterations 6
smoothSolver:  Solving for Uy, Initial residual = 0.0200245, Final residual = 0.00135954, No Iterations 6
GAMG:  Solving for p, Initial residual = 0.024105, Final residual = 0.00207779, No Iterations 3
time step continuity errors : sum local = 0.116572, global = 0.00739994, cumulative = 0.856299
smoothSolver:  Solving for epsilon, Initial residual = 0.00835156, Final residual = 0.000762942, No Iterations 3
smoothSolver:  Solving for k, Initial residual = 0.0121944, Final residual = 0.000875496, No Iterations 4
ExecutionTime = 2.11636 s  ClockTime = 2 s

Time = 47s

smoothSolver:  Solving for Ux, Initial residual = 0.00504703, Final residual = 0.000333161, No Iterations 6
smoothSolver:  Solving for Uy, Initial residual = 0.0198441, Final residual = 0.00135948, No Iterations 6
GAMG:  Solving for p, Initial residual = 0.0241394, Final residual = 0.00194023, No Iterations 3
time step continuity errors : sum local = 0.10714, global = 0.00955794, cumulative = 0.865857
smoothSolver:  Solving for epsilon, Initial residual = 0.00807794, Final residual = 0.00074269, No Iterations 3
smoothSolver:  Solving for k, Initial residual = 0.0118073, Final residual = 0.00084302, No Iterations 4
ExecutionTime = 2.15273 s  ClockTime = 2 s

Time = 48s

smoothSolver:  Solving for Ux, Initial residual = 0.00487547, Final residual = 0.000322228, No Iterations 6
smoothSolver:  Solving for Uy, Initial residual = 0.0197133, Final residual = 0.00136046, No Iterations 6
GAMG:  Solving for p, Initial residual = 0.0248268, Final residual = 0.00177261, No Iterations 3
time step continuity errors : sum local = 0.0970878, global = 0.0139389, cumulative = 0.879796
smoothSolver:  Solving for epsilon, Initial residual = 0.00780386, Final residual = 0.000703907, No Iterations 3
smoothSolver:  Solving for k, Initial residual = 0.0114292, Final residual = 0.000820056, No Iterations 4
ExecutionTime = 2.18894 s  ClockTime = 2 s

Time = 49s

smoothSolver:  Solving for Ux, Initial residual = 0.00473426, Final residual = 0.000314005, No Iterations 6
smoothSolver:  Solving for Uy, Initial residual = 0.0197002, Final residual = 0.0013607, No Iterations 6
GAMG:  Solving for p, Initial residual = 0.022576, Final residual = 0.00191328, No Iterations 3
time step continuity errors : sum local = 0.103057, global = 0.0169739, cumulative = 0.89677
smoothSolver:  Solving for epsilon, Initial residual = 0.00755657, Final residual = 0.000682507, No Iterations 3
smoothSolver:  Solving for k, Initial residual = 0.0110828, Final residual = 0.000795405, No Iterations 4
ExecutionTime = 2.22533 s  ClockTime = 2 s

Time = 50s

smoothSolver:  Solving for Ux, Initial residual = 0.00459889, Final residual = 0.000305564, No Iterations 6
smoothSolver:  Solving for Uy, Initial residual = 0.0196462, Final residual = 0.00136585, No Iterations 6
GAMG:  Solving for p, Initial residual = 0.0230752, Final residual = 0.00188426, No Iterations 3
time step continuity errors : sum local = 0.0998422, global = 0.0169229, cumulative = 0.913693
smoothSolver:  Solving for epsilon, Initial residual = 0.007272, Final residual = 0.000657243, No Iterations 3
smoothSolver:  Solving for k, Initial residual = 0.0106779, Final residual = 0.000757999, No Iterations 4
ExecutionTime = 2.26173 s  ClockTime = 3 s

Time = 51s

smoothSolver:  Solving for Ux, Initial residual = 0.00448097, Final residual = 0.000298431, No Iterations 6
smoothSolver:  Solving for Uy, Initial residual = 0.0196, Final residual = 0.00137166, No Iterations 6
GAMG:  Solving for p, Initial residual = 0.0218803, Final residual = 0.00179113, No Iterations 3
time step continuity errors : sum local = 0.0942488, global = 0.0159515, cumulative = 0.929644
smoothSolver:  Solving for epsilon, Initial residual = 0.00712802, Final residual = 0.000635336, No Iterations 3
smoothSolver:  Solving for k, Initial residual = 0.0103842, Final residual = 0.00074208, No Iterations 4
ExecutionTime = 2.2983 s  ClockTime = 3 s

Time = 52s

smoothSolver:  Solving for Ux, Initial residual = 0.0043966, Final residual = 0.000292347, No Iterations 6
smoothSolver:  Solving for Uy, Initial residual = 0.0196616, Final residual = 0.00137673, No Iterations 6
GAMG:  Solving for p, Initial residual = 0.0249919, Final residual = 0.001706, No Iterations 3
time step continuity errors : sum local = 0.0901258, global = 0.0152928, cumulative = 0.944937
smoothSolver:  Solving for epsilon, Initial residual = 0.00692199, Final residual = 0.000600605, No Iterations 3
smoothSolver:  Solving for k, Initial residual = 0.00998646, Final residual = 0.00071103, No Iterations 4
ExecutionTime = 2.33506 s  ClockTime = 3 s

Time = 53s

smoothSolver:  Solving for Ux, Initial residual = 0.00432204, Final residual = 0.000287918, No Iterations 6
smoothSolver:  Solving for Uy, Initial residual = 0.0196491, Final residual = 0.00138025, No Iterations 6
GAMG:  Solving for p, Initial residual = 0.0219403, Final residual = 0.00171678, No Iterations 3
time step continuity errors : sum local = 0.0885846, global = 0.0152439, cumulative = 0.960181
smoothSolver:  Solving for epsilon, Initial residual = 0.0066772, Final residual = 0.000583169, No Iterations 3
smoothSolver:  Solving for k, Initial residual = 0.00968894, Final residual = 0.000689354, No Iterations 4
ExecutionTime = 2.37211 s  ClockTime = 3 s

Time = 54s

smoothSolver:  Solving for Ux, Initial residual = 0.00423836, Final residual = 0.000282626, No Iterations 6
smoothSolver:  Solving for Uy, Initial residual = 0.0196612, Final residual = 0.00138885, No Iterations 6
GAMG:  Solving for p, Initial residual = 0.0223888, Final residual = 0.00164178, No Iterations 3
time step continuity errors : sum local = 0.0834154, global = 0.0144337, cumulative = 0.974615
smoothSolver:  Solving for epsilon, Initial residual = 0.00647735, Final residual = 0.000556312, No Iterations 3
smoothSolver:  Solving for k, Initial residual = 0.00938442, Final residual = 0.000666472, No Iterations 4
ExecutionTime = 2.4089 s  ClockTime = 3 s

Time = 55s

smoothSolver:  Solving for Ux, Initial residual = 0.00416881, Final residual = 0.000278214, No Iterations 6
smoothSolver:  Solving for Uy, Initial residual = 0.01972, Final residual = 0.00139634, No Iterations 6
GAMG:  Solving for p, Initial residual = 0.0212841, Final residual = 0.00156778, No Iterations 3
time step continuity errors : sum local = 0.0797523, global = 0.0141084, cumulative = 0.988723
smoothSolver:  Solving for epsilon, Initial residual = 0.0063509, Final residual = 0.000540958, No Iterations 3
smoothSolver:  Solving for k, Initial residual = 0.00909629, Final residual = 0.000649048, No Iterations 4
ExecutionTime = 2.44565 s  ClockTime = 3 s

Time = 56s

smoothSolver:  Solving for Ux, Initial residual = 0.00411317, Final residual = 0.00027426, No Iterations 6
smoothSolver:  Solving for Uy, Initial residual = 0.0197118, Final residual = 0.00140204, No Iterations 6
GAMG:  Solving for p, Initial residual = 0.023183, Final residual = 0.00149345, No Iterations 3
time step continuity errors : sum local = 0.0763688, global = 0.0134225, cumulative = 1.00215
smoothSolver:  Solving for epsilon, Initial residual = 0.00620675, Final residual = 0.000514117, No Iterations 3
smoothSolver:  Solving for k, Initial residual = 0.00881997, Final residual = 0.000625386, No Iterations 4
ExecutionTime = 2.48228 s  ClockTime = 3 s

Time = 57s

smoothSolver:  Solving for Ux, Initial residual = 0.00408326, Final residual = 0.000271507, No Iterations 6
smoothSolver:  Solving for Uy, Initial residual = 0.019803, Final residual = 0.00140736, No Iterations 6
GAMG:  Solving for p, Initial residual = 0.0217379, Final residual = 0.0015035, No Iterations 3
time step continuity errors : sum local = 0.0751451, global = 0.0137027, cumulative = 1.01585
smoothSolver:  Solving for epsilon, Initial residual = 0.00604614, Final residual = 0.000499305, No Iterations 3
smoothSolver:  Solving for k, Initial residual = 0.00855395, Final residual = 0.000602347, No Iterations 4
ExecutionTime = 2.51857 s  ClockTime = 3 s

Time = 58s

smoothSolver:  Solving for Ux, Initial residual = 0.00402516, Final residual = 0.000268024, No Iterations 6
smoothSolver:  Solving for Uy, Initial residual = 0.0198119, Final residual = 0.00141466, No Iterations 6
GAMG:  Solving for p, Initial residual = 0.0225868, Final residual = 0.00153233, No Iterations 3
time step continuity errors : sum local = 0.0761616, global = 0.0119853, cumulative = 1.02783
smoothSolver:  Solving for epsilon, Initial residual = 0.00589498, Final residual = 0.000481418, No Iterations 3
smoothSolver:  Solving for k, Initial residual = 0.00828281, Final residual = 0.000581307, No Iterations 4
ExecutionTime = 2.55474 s  ClockTime = 3 s

Time = 59s

smoothSolver:  Solving for Ux, Initial residual = 0.00397539, Final residual = 0.000264859, No Iterations 6
smoothSolver:  Solving for Uy, Initial residual = 0.0198234, Final residual = 0.00142261, No Iterations 6
GAMG:  Solving for p, Initial residual = 0.0207397, Final residual = 0.00152479, No Iterations 3
time step continuity errors : sum local = 0.0755616, global = 0.0100538, cumulative = 1.03789
smoothSolver:  Solving for epsilon, Initial residual = 0.00578075, Final residual = 0.000467267, No Iterations 3
smoothSolver:  Solving for k, Initial residual = 0.00803988, Final residual = 0.000566938, No Iterations 4
ExecutionTime = 2.5878 s  ClockTime = 3 s

Time = 60s

smoothSolver:  Solving for Ux, Initial residual = 0.0039381, Final residual = 0.000262245, No Iterations 6
smoothSolver:  Solving for Uy, Initial residual = 0.0198828, Final residual = 0.00142977, No Iterations 6
GAMG:  Solving for p, Initial residual = 0.0202004, Final residual = 0.00138305, No Iterations 3
time step continuity errors : sum local = 0.0676929, global = 0.0171761, cumulative = 1.05506
smoothSolver:  Solving for epsilon, Initial residual = 0.00565155, Final residual = 0.00045012, No Iterations 3
smoothSolver:  Solving for k, Initial residual = 0.00781125, Final residual = 0.000547184, No Iterations 4
ExecutionTime = 2.62101 s  ClockTime = 3 s

Time = 61s

smoothSolver:  Solving for Ux, Initial residual = 0.00390515, Final residual = 0.0002601, No Iterations 6
smoothSolver:  Solving for Uy, Initial residual = 0.0199949, Final residual = 0.00143539, No Iterations 6
GAMG:  Solving for p, Initial residual = 0.0202326, Final residual = 0.00191428, No Iterations 3
time step continuity errors : sum local = 0.0934331, global = -0.0088726, cumulative = 1.04619
smoothSolver:  Solving for epsilon, Initial residual = 0.00554896, Final residual = 0.000440645, No Iterations 3
smoothSolver:  Solving for k, Initial residual = 0.00759663, Final residual = 0.000531957, No Iterations 4
ExecutionTime = 2.65475 s  ClockTime = 3 s

Time = 62s

smoothSolver:  Solving for Ux, Initial residual = 0.00387449, Final residual = 0.000257598, No Iterations 6
smoothSolver:  Solving for Uy, Initial residual = 0.0199436, Final residual = 0.00144222, No Iterations 6
GAMG:  Solving for p, Initial residual = 0.0194144, Final residual = 0.00158481, No Iterations 3
time step continuity errors : sum local = 0.0768441, global = 0.0149286, cumulative = 1.06112
smoothSolver:  Solving for epsilon, Initial residual = 0.00540841, Final residual = 0.000420563, No Iterations 3
smoothSolver:  Solving for k, Initial residual = 0.00738989, Final residual = 0.000518699, No Iterations 4
ExecutionTime = 2.68802 s  ClockTime = 3 s

Time = 63s

smoothSolver:  Solving for Ux, Initial residual = 0.00384522, Final residual = 0.000256026, No Iterations 6
smoothSolver:  Solving for Uy, Initial residual = 0.0199271, Final residual = 0.0014463, No Iterations 6
GAMG:  Solving for p, Initial residual = 0.0205015, Final residual = 0.002014, No Iterations 3
time step continuity errors : sum local = 0.096919, global = -0.00702812, cumulative = 1.05409
smoothSolver:  Solving for epsilon, Initial residual = 0.00530679, Final residual = 0.000411631, No Iterations 3
smoothSolver:  Solving for k, Initial residual = 0.00720554, Final residual = 0.000504598, No Iterations 4
ExecutionTime = 2.72123 s  ClockTime = 3 s

Time = 64s

smoothSolver:  Solving for Ux, Initial residual = 0.00380986, Final residual = 0.000252741, No Iterations 6
smoothSolver:  Solving for Uy, Initial residual = 0.0200181, Final residual = 0.00145679, No Iterations 6
GAMG:  Solving for p, Initial residual = 0.0203061, Final residual = 0.00155642, No Iterations 3
time step continuity errors : sum local = 0.0743214, global = 0.0142211, cumulative = 1.06831
smoothSolver:  Solving for epsilon, Initial residual = 0.00520918, Final residual = 0.000402693, No Iterations 3
smoothSolver:  Solving for k, Initial residual = 0.0070344, Final residual = 0.000493645, No Iterations 4
ExecutionTime = 2.75463 s  ClockTime = 3 s

Time = 65s

smoothSolver:  Solving for Ux, Initial residual = 0.00378422, Final residual = 0.000251789, No Iterations 6
smoothSolver:  Solving for Uy, Initial residual = 0.0200772, Final residual = 0.0014646, No Iterations 6
GAMG:  Solving for p, Initial residual = 0.0206866, Final residual = 0.00194289, No Iterations 3
time step continuity errors : sum local = 0.092644, global = -0.00718246, cumulative = 1.06113
smoothSolver:  Solving for epsilon, Initial residual = 0.00514637, Final residual = 0.00039653, No Iterations 3
smoothSolver:  Solving for k, Initial residual = 0.00689951, Final residual = 0.000485269, No Iterations 4
ExecutionTime = 2.78779 s  ClockTime = 3 s

Time = 66s

smoothSolver:  Solving for Ux, Initial residual = 0.00375797, Final residual = 0.00024912, No Iterations 6
smoothSolver:  Solving for Uy, Initial residual = 0.0201513, Final residual = 0.00147344, No Iterations 6
GAMG:  Solving for p, Initial residual = 0.0199445, Final residual = 0.00153912, No Iterations 3
time step continuity errors : sum local = 0.0727023, global = 0.0140269, cumulative = 1.07516
smoothSolver:  Solving for epsilon, Initial residual = 0.00503877, Final residual = 0.000385303, No Iterations 3
smoothSolver:  Solving for k, Initial residual = 0.006739, Final residual = 0.000473774, No Iterations 4
ExecutionTime = 2.82099 s  ClockTime = 3 s

Time = 67s

smoothSolver:  Solving for Ux, Initial residual = 0.00374138, Final residual = 0.000248448, No Iterations 6
smoothSolver:  Solving for Uy, Initial residual = 0.0202353, Final residual = 0.00148169, No Iterations 6
GAMG:  Solving for p, Initial residual = 0.0202893, Final residual = 0.00186705, No Iterations 3
time step continuity errors : sum local = 0.088139, global = -0.0109871, cumulative = 1.06417
smoothSolver:  Solving for epsilon, Initial residual = 0.00498001, Final residual = 0.000381178, No Iterations 3
smoothSolver:  Solving for k, Initial residual = 0.00661673, Final residual = 0.000467595, No Iterations 4
ExecutionTime = 2.85454 s  ClockTime = 3 s

Time = 68s

smoothSolver:  Solving for Ux, Initial residual = 0.00372121, Final residual = 0.000246316, No Iterations 6
smoothSolver:  Solving for Uy, Initial residual = 0.0202913, Final residual = 0.00148917, No Iterations 6
GAMG:  Solving for p, Initial residual = 0.0199813, Final residual = 0.00160432, No Iterations 3
time step continuity errors : sum local = 0.0751793, global = 0.013709, cumulative = 1.07788
smoothSolver:  Solving for epsilon, Initial residual = 0.00491348, Final residual = 0.000373805, No Iterations 3
smoothSolver:  Solving for k, Initial residual = 0.0064608, Final residual = 0.00045845, No Iterations 4
ExecutionTime = 2.88774 s  ClockTime = 3 s

Time = 69s

smoothSolver:  Solving for Ux, Initial residual = 0.00370907, Final residual = 0.000245802, No Iterations 6
smoothSolver:  Solving for Uy, Initial residual = 0.0203817, Final residual = 0.00149854, No Iterations 6
GAMG:  Solving for p, Initial residual = 0.0201104, Final residual = 0.0018605, No Iterations 3
time step continuity errors : sum local = 0.0872785, global = -0.0137281, cumulative = 1.06415
smoothSolver:  Solving for epsilon, Initial residual = 0.00484848, Final residual = 0.000371153, No Iterations 3
smoothSolver:  Solving for k, Initial residual = 0.00632865, Final residual = 0.00044877, No Iterations 4
ExecutionTime = 2.92094 s  ClockTime = 3 s

Time = 70s

smoothSolver:  Solving for Ux, Initial residual = 0.00368849, Final residual = 0.000243786, No Iterations 6
smoothSolver:  Solving for Uy, Initial residual = 0.0204249, Final residual = 0.00150649, No Iterations 6
GAMG:  Solving for p, Initial residual = 0.0191416, Final residual = 0.00174812, No Iterations 3
time step continuity errors : sum local = 0.0809756, global = 0.012924, cumulative = 1.07707
smoothSolver:  Solving for epsilon, Initial residual = 0.00477906, Final residual = 0.000363432, No Iterations 3
smoothSolver:  Solving for k, Initial residual = 0.00623298, Final residual = 0.000444515, No Iterations 4
ExecutionTime = 2.95408 s  ClockTime = 3 s

Time = 71s

smoothSolver:  Solving for Ux, Initial residual = 0.00367911, Final residual = 0.000243546, No Iterations 6
smoothSolver:  Solving for Uy, Initial residual = 0.0205581, Final residual = 0.00151721, No Iterations 6
GAMG:  Solving for p, Initial residual = 0.0195673, Final residual = 0.00175614, No Iterations 3
time step continuity errors : sum local = 0.0816392, global = -0.0136477, cumulative = 1.06343
smoothSolver:  Solving for epsilon, Initial residual = 0.00473329, Final residual = 0.000362909, No Iterations 3
smoothSolver:  Solving for k, Initial residual = 0.00614106, Final residual = 0.000436571, No Iterations 4
ExecutionTime = 2.98805 s  ClockTime = 3 s

Time = 72s

smoothSolver:  Solving for Ux, Initial residual = 0.00365944, Final residual = 0.000241906, No Iterations 6
smoothSolver:  Solving for Uy, Initial residual = 0.020633, Final residual = 0.0015256, No Iterations 6
GAMG:  Solving for p, Initial residual = 0.0187574, Final residual = 0.00174157, No Iterations 3
time step continuity errors : sum local = 0.0805171, global = 0.0126314, cumulative = 1.07606
smoothSolver:  Solving for epsilon, Initial residual = 0.00469304, Final residual = 0.000360861, No Iterations 3
smoothSolver:  Solving for k, Initial residual = 0.00603449, Final residual = 0.000431615, No Iterations 4
ExecutionTime = 3.02263 s  ClockTime = 3 s

Time = 73s

smoothSolver:  Solving for Ux, Initial residual = 0.00366158, Final residual = 0.000242268, No Iterations 6
smoothSolver:  Solving for Uy, Initial residual = 0.0207765, Final residual = 0.00153564, No Iterations 6
GAMG:  Solving for p, Initial residual = 0.0195198, Final residual = 0.00173377, No Iterations 3
time step continuity errors : sum local = 0.0797961, global = -0.0126106, cumulative = 1.06345
smoothSolver:  Solving for epsilon, Initial residual = 0.00467007, Final residual = 0.000362647, No Iterations 3
smoothSolver:  Solving for k, Initial residual = 0.00597758, Final residual = 0.00043019, No Iterations 4
ExecutionTime = 3.05591 s  ClockTime = 3 s

Time = 74s

smoothSolver:  Solving for Ux, Initial residual = 0.0036456, Final residual = 0.000241025, No Iterations 6
smoothSolver:  Solving for Uy, Initial residual = 0.0208539, Final residual = 0.00154393, No Iterations 6
GAMG:  Solving for p, Initial residual = 0.0183769, Final residual = 0.00171576, No Iterations 3
time step continuity errors : sum local = 0.0791282, global = 0.0122525, cumulative = 1.0757
smoothSolver:  Solving for epsilon, Initial residual = 0.0046099, Final residual = 0.000360926, No Iterations 3
smoothSolver:  Solving for k, Initial residual = 0.00588261, Final residual = 0.000426724, No Iterations 4
ExecutionTime = 3.08918 s  ClockTime = 3 s

Time = 75s

smoothSolver:  Solving for Ux, Initial residual = 0.00364898, Final residual = 0.000241609, No Iterations 6
smoothSolver:  Solving for Uy, Initial residual = 0.0209796, Final residual = 0.00155479, No Iterations 6
GAMG:  Solving for p, Initial residual = 0.0192473, Final residual = 0.00168899, No Iterations 3
time step continuity errors : sum local = 0.0778503, global = -0.0115847, cumulative = 1.06412
smoothSolver:  Solving for epsilon, Initial residual = 0.00456673, Final residual = 0.000358679, No Iterations 3
smoothSolver:  Solving for k, Initial residual = 0.00585831, Final residual = 0.00042663, No Iterations 4
ExecutionTime = 3.12265 s  ClockTime = 3 s

Time = 76s

smoothSolver:  Solving for Ux, Initial residual = 0.00363894, Final residual = 0.000240592, No Iterations 6
smoothSolver:  Solving for Uy, Initial residual = 0.0210752, Final residual = 0.00156362, No Iterations 6
GAMG:  Solving for p, Initial residual = 0.0182688, Final residual = 0.00172636, No Iterations 3
time step continuity errors : sum local = 0.0790364, global = 0.0119826, cumulative = 1.0761
smoothSolver:  Solving for epsilon, Initial residual = 0.00453339, Final residual = 0.000358579, No Iterations 3
smoothSolver:  Solving for k, Initial residual = 0.00578087, Final residual = 0.000423276, No Iterations 4
ExecutionTime = 3.15583 s  ClockTime = 3 s

Time = 77s

smoothSolver:  Solving for Ux, Initial residual = 0.00364602, Final residual = 0.000241333, No Iterations 6
smoothSolver:  Solving for Uy, Initial residual = 0.021211, Final residual = 0.00157428, No Iterations 6
GAMG:  Solving for p, Initial residual = 0.0191804, Final residual = 0.0015885, No Iterations 3
time step continuity errors : sum local = 0.0730754, global = -0.0113853, cumulative = 1.06471
smoothSolver:  Solving for epsilon, Initial residual = 0.00449944, Final residual = 0.00036081, No Iterations 3
smoothSolver:  Solving for k, Initial residual = 0.00570803, Final residual = 0.000422091, No Iterations 4
ExecutionTime = 3.189 s  ClockTime = 3 s

Time = 78s

smoothSolver:  Solving for Ux, Initial residual = 0.00363413, Final residual = 0.00024048, No Iterations 6
smoothSolver:  Solving for Uy, Initial residual = 0.0213074, Final residual = 0.00158384, No Iterations 6
GAMG:  Solving for p, Initial residual = 0.0183385, Final residual = 0.00179792, No Iterations 3
time step continuity errors : sum local = 0.0825686, global = 0.0121099, cumulative = 1.07682
smoothSolver:  Solving for epsilon, Initial residual = 0.00447935, Final residual = 0.000361925, No Iterations 3
smoothSolver:  Solving for k, Initial residual = 0.00564976, Final residual = 0.000419957, No Iterations 4
ExecutionTime = 3.22213 s  ClockTime = 3 s

Time = 79s

smoothSolver:  Solving for Ux, Initial residual = 0.00364442, Final residual = 0.000241268, No Iterations 6
smoothSolver:  Solving for Uy, Initial residual = 0.0214531, Final residual = 0.0015937, No Iterations 6
GAMG:  Solving for p, Initial residual = 0.0193565, Final residual = 0.0015595, No Iterations 3
time step continuity errors : sum local = 0.0711901, global = -0.0107658, cumulative = 1.06606
smoothSolver:  Solving for epsilon, Initial residual = 0.00444624, Final residual = 0.000363142, No Iterations 3
smoothSolver:  Solving for k, Initial residual = 0.00564192, Final residual = 0.000423804, No Iterations 4
ExecutionTime = 3.25549 s  ClockTime = 4 s

Time = 80s

smoothSolver:  Solving for Ux, Initial residual = 0.00363533, Final residual = 0.000240548, No Iterations 6
smoothSolver:  Solving for Uy, Initial residual = 0.0215548, Final residual = 0.00160388, No Iterations 6
GAMG:  Solving for p, Initial residual = 0.018416, Final residual = 0.00142045, No Iterations 4
time step continuity errors : sum local = 0.06513, global = -0.0123288, cumulative = 1.05373
smoothSolver:  Solving for epsilon, Initial residual = 0.00443178, Final residual = 0.000365801, No Iterations 3
smoothSolver:  Solving for k, Initial residual = 0.00557905, Final residual = 0.000422104, No Iterations 4
ExecutionTime = 3.29018 s  ClockTime = 4 s

Time = 81s

smoothSolver:  Solving for Ux, Initial residual = 0.00363799, Final residual = 0.000240924, No Iterations 6
smoothSolver:  Solving for Uy, Initial residual = 0.0217052, Final residual = 0.0016151, No Iterations 6
GAMG:  Solving for p, Initial residual = 0.0189613, Final residual = 0.0014206, No Iterations 4
time step continuity errors : sum local = 0.0651245, global = -0.0125656, cumulative = 1.04116
smoothSolver:  Solving for epsilon, Initial residual = 0.00439077, Final residual = 0.000367008, No Iterations 3
smoothSolver:  Solving for k, Initial residual = 0.00552851, Final residual = 0.000422791, No Iterations 4
ExecutionTime = 3.32484 s  ClockTime = 4 s

Time = 82s

smoothSolver:  Solving for Ux, Initial residual = 0.00363704, Final residual = 0.000240994, No Iterations 6
smoothSolver:  Solving for Uy, Initial residual = 0.0218068, Final residual = 0.00162452, No Iterations 6
GAMG:  Solving for p, Initial residual = 0.0188909, Final residual = 0.00146716, No Iterations 4
time step continuity errors : sum local = 0.0667867, global = -0.0128133, cumulative = 1.02835
smoothSolver:  Solving for epsilon, Initial residual = 0.00437974, Final residual = 0.000368679, No Iterations 3
smoothSolver:  Solving for k, Initial residual = 0.00549379, Final residual = 0.000423922, No Iterations 4
ExecutionTime = 3.36103 s  ClockTime = 4 s

Time = 83s

smoothSolver:  Solving for Ux, Initial residual = 0.0036409, Final residual = 0.000240989, No Iterations 6
smoothSolver:  Solving for Uy, Initial residual = 0.0219618, Final residual = 0.00163499, No Iterations 6
GAMG:  Solving for p, Initial residual = 0.0191075, Final residual = 0.00146235, No Iterations 4
time step continuity errors : sum local = 0.0670565, global = -0.0128571, cumulative = 1.01549
smoothSolver:  Solving for epsilon, Initial residual = 0.0043362, Final residual = 0.000369084, No Iterations 3
smoothSolver:  Solving for k, Initial residual = 0.00545052, Final residual = 0.00042472, No Iterations 4
ExecutionTime = 3.39619 s  ClockTime = 4 s

Time = 84s

smoothSolver:  Solving for Ux, Initial residual = 0.00363406, Final residual = 0.000241013, No Iterations 6
smoothSolver:  Solving for Uy, Initial residual = 0.0220512, Final residual = 0.00164563, No Iterations 6
GAMG:  Solving for p, Initial residual = 0.0186949, Final residual = 0.00145679, No Iterations 4
time step continuity errors : sum local = 0.0667859, global = -0.0128369, cumulative = 1.00266
smoothSolver:  Solving for epsilon, Initial residual = 0.00432219, Final residual = 0.000371041, No Iterations 3
smoothSolver:  Solving for k, Initial residual = 0.00541311, Final residual = 0.000425169, No Iterations 4
ExecutionTime = 3.43066 s  ClockTime = 4 s

Time = 85s

smoothSolver:  Solving for Ux, Initial residual = 0.00364022, Final residual = 0.000241153, No Iterations 6
smoothSolver:  Solving for Uy, Initial residual = 0.0222414, Final residual = 0.00165699, No Iterations 6
GAMG:  Solving for p, Initial residual = 0.0191261, Final residual = 0.00146796, No Iterations 4
time step continuity errors : sum local = 0.0668841, global = -0.01273, cumulative = 0.989925
smoothSolver:  Solving for epsilon, Initial residual = 0.0043044, Final residual = 0.000373902, No Iterations 3
smoothSolver:  Solving for k, Initial residual = 0.00539009, Final residual = 0.00042737, No Iterations 4
ExecutionTime = 3.46515 s  ClockTime = 4 s

Time = 86s

smoothSolver:  Solving for Ux, Initial residual = 0.00363559, Final residual = 0.000241232, No Iterations 6
smoothSolver:  Solving for Uy, Initial residual = 0.0223467, Final residual = 0.00166862, No Iterations 6
GAMG:  Solving for p, Initial residual = 0.0185415, Final residual = 0.00145251, No Iterations 4
time step continuity errors : sum local = 0.066592, global = -0.0128193, cumulative = 0.977106
smoothSolver:  Solving for epsilon, Initial residual = 0.00429224, Final residual = 0.000375737, No Iterations 3
smoothSolver:  Solving for k, Initial residual = 0.00533974, Final residual = 0.000426349, No Iterations 4
ExecutionTime = 3.50013 s  ClockTime = 4 s

Time = 87s

smoothSolver:  Solving for Ux, Initial residual = 0.00363985, Final residual = 0.000241321, No Iterations 6
smoothSolver:  Solving for Uy, Initial residual = 0.0225237, Final residual = 0.00168057, No Iterations 6
GAMG:  Solving for p, Initial residual = 0.0185568, Final residual = 0.00146549, No Iterations 4
time step continuity errors : sum local = 0.0672193, global = -0.0126636, cumulative = 0.964442
smoothSolver:  Solving for epsilon, Initial residual = 0.00425482, Final residual = 0.000377889, No Iterations 3
smoothSolver:  Solving for k, Initial residual = 0.00527943, Final residual = 0.0004261, No Iterations 4
ExecutionTime = 3.53493 s  ClockTime = 4 s

Time = 88s

smoothSolver:  Solving for Ux, Initial residual = 0.00363392, Final residual = 0.000241417, No Iterations 6
smoothSolver:  Solving for Uy, Initial residual = 0.0226558, Final residual = 0.0016932, No Iterations 6
GAMG:  Solving for p, Initial residual = 0.0182114, Final residual = 0.00148192, No Iterations 4
time step continuity errors : sum local = 0.0674552, global = -0.0128744, cumulative = 0.951568
smoothSolver:  Solving for epsilon, Initial residual = 0.00425395, Final residual = 0.00038038, No Iterations 3
smoothSolver:  Solving for k, Initial residual = 0.00526486, Final residual = 0.000429213, No Iterations 4
ExecutionTime = 3.56943 s  ClockTime = 4 s

Time = 89s

smoothSolver:  Solving for Ux, Initial residual = 0.00363854, Final residual = 0.000241457, No Iterations 6
smoothSolver:  Solving for Uy, Initial residual = 0.022826, Final residual = 0.00170665, No Iterations 6
GAMG:  Solving for p, Initial residual = 0.0173516, Final residual = 0.00146263, No Iterations 4
time step continuity errors : sum local = 0.0672191, global = -0.0131484, cumulative = 0.93842
smoothSolver:  Solving for epsilon, Initial residual = 0.00420271, Final residual = 0.000380006, No Iterations 3
smoothSolver:  Solving for k, Initial residual = 0.00524123, Final residual = 0.000431247, No Iterations 4
ExecutionTime = 3.60387 s  ClockTime = 4 s

Time = 90s

smoothSolver:  Solving for Ux, Initial residual = 0.00363069, Final residual = 0.000241502, No Iterations 6
smoothSolver:  Solving for Uy, Initial residual = 0.0229499, Final residual = 0.00172011, No Iterations 6
GAMG:  Solving for p, Initial residual = 0.0169, Final residual = 0.00148078, No Iterations 4
time step continuity errors : sum local = 0.0681587, global = -0.0131871, cumulative = 0.925232
smoothSolver:  Solving for epsilon, Initial residual = 0.00419317, Final residual = 0.00038363, No Iterations 3
smoothSolver:  Solving for k, Initial residual = 0.00522394, Final residual = 0.00043339, No Iterations 4
ExecutionTime = 3.63817 s  ClockTime = 4 s

Time = 91s

smoothSolver:  Solving for Ux, Initial residual = 0.00362728, Final residual = 0.000241687, No Iterations 6
smoothSolver:  Solving for Uy, Initial residual = 0.023117, Final residual = 0.00173394, No Iterations 6
GAMG:  Solving for p, Initial residual = 0.0165636, Final residual = 0.00152186, No Iterations 4
time step continuity errors : sum local = 0.0696413, global = -0.0134607, cumulative = 0.911772
smoothSolver:  Solving for epsilon, Initial residual = 0.00415675, Final residual = 0.000382513, No Iterations 3
smoothSolver:  Solving for k, Initial residual = 0.00518523, Final residual = 0.000434813, No Iterations 4
ExecutionTime = 3.67277 s  ClockTime = 4 s

Time = 92s

smoothSolver:  Solving for Ux, Initial residual = 0.00362505, Final residual = 0.000241731, No Iterations 6
smoothSolver:  Solving for Uy, Initial residual = 0.0232913, Final residual = 0.00174848, No Iterations 6
GAMG:  Solving for p, Initial residual = 0.0163515, Final residual = 0.00153471, No Iterations 4
time step continuity errors : sum local = 0.0708398, global = -0.0136589, cumulative = 0.898113
smoothSolver:  Solving for epsilon, Initial residual = 0.00414313, Final residual = 0.000384356, No Iterations 3
smoothSolver:  Solving for k, Initial residual = 0.00516818, Final residual = 0.000436897, No Iterations 4
ExecutionTime = 3.70714 s  ClockTime = 4 s

Time = 93s

smoothSolver:  Solving for Ux, Initial residual = 0.00362105, Final residual = 0.000241734, No Iterations 6
smoothSolver:  Solving for Uy, Initial residual = 0.0234607, Final residual = 0.0017627, No Iterations 6
GAMG:  Solving for p, Initial residual = 0.0159648, Final residual = 0.00156094, No Iterations 4
time step continuity errors : sum local = 0.0720565, global = -0.0137864, cumulative = 0.884326
smoothSolver:  Solving for epsilon, Initial residual = 0.00412289, Final residual = 0.000385823, No Iterations 3
smoothSolver:  Solving for k, Initial residual = 0.00515736, Final residual = 0.000439567, No Iterations 4
ExecutionTime = 3.74169 s  ClockTime = 4 s

Time = 94s

smoothSolver:  Solving for Ux, Initial residual = 0.00361803, Final residual = 0.000241684, No Iterations 6
smoothSolver:  Solving for Uy, Initial residual = 0.0236588, Final residual = 0.00177749, No Iterations 6
GAMG:  Solving for p, Initial residual = 0.0156784, Final residual = 0.00129286, No Iterations 5
time step continuity errors : sum local = 0.0593205, global = 0.0139113, cumulative = 0.898238
smoothSolver:  Solving for epsilon, Initial residual = 0.00410133, Final residual = 0.00038624, No Iterations 3
smoothSolver:  Solving for k, Initial residual = 0.00513219, Final residual = 0.000441371, No Iterations 4
ExecutionTime = 3.77744 s  ClockTime = 4 s

Time = 95s

smoothSolver:  Solving for Ux, Initial residual = 0.00361968, Final residual = 0.000241327, No Iterations 6
smoothSolver:  Solving for Uy, Initial residual = 0.0238953, Final residual = 0.00179474, No Iterations 6
GAMG:  Solving for p, Initial residual = 0.0155051, Final residual = 0.00131712, No Iterations 4
time step continuity errors : sum local = 0.0605032, global = -0.0151702, cumulative = 0.883068
smoothSolver:  Solving for epsilon, Initial residual = 0.00408906, Final residual = 0.000387427, No Iterations 3
smoothSolver:  Solving for k, Initial residual = 0.00511287, Final residual = 0.000442845, No Iterations 4
ExecutionTime = 3.81188 s  ClockTime = 4 s

Time = 96s

smoothSolver:  Solving for Ux, Initial residual = 0.00361421, Final residual = 0.000241433, No Iterations 6
smoothSolver:  Solving for Uy, Initial residual = 0.0240852, Final residual = 0.00181255, No Iterations 6
GAMG:  Solving for p, Initial residual = 0.0151902, Final residual = 0.00122588, No Iterations 5
time step continuity errors : sum local = 0.0564115, global = 0.0118927, cumulative = 0.89496
smoothSolver:  Solving for epsilon, Initial residual = 0.00406013, Final residual = 0.000387103, No Iterations 3
smoothSolver:  Solving for k, Initial residual = 0.00511219, Final residual = 0.000445771, No Iterations 4
ExecutionTime = 3.84752 s  ClockTime = 4 s

Time = 97s

smoothSolver:  Solving for Ux, Initial residual = 0.00361022, Final residual = 0.000241304, No Iterations 6
smoothSolver:  Solving for Uy, Initial residual = 0.0243022, Final residual = 0.00182784, No Iterations 6
GAMG:  Solving for p, Initial residual = 0.0150603, Final residual = 0.00136639, No Iterations 4
time step continuity errors : sum local = 0.0625148, global = -0.0151723, cumulative = 0.879788
smoothSolver:  Solving for epsilon, Initial residual = 0.00406024, Final residual = 0.000388779, No Iterations 3
smoothSolver:  Solving for k, Initial residual = 0.00509948, Final residual = 0.000447775, No Iterations 4
ExecutionTime = 3.88187 s  ClockTime = 4 s

Time = 98s

smoothSolver:  Solving for Ux, Initial residual = 0.00360591, Final residual = 0.000240948, No Iterations 6
smoothSolver:  Solving for Uy, Initial residual = 0.0244852, Final residual = 0.00184338, No Iterations 6
GAMG:  Solving for p, Initial residual = 0.0150991, Final residual = 0.00128493, No Iterations 5
time step continuity errors : sum local = 0.0591492, global = 0.012435, cumulative = 0.892223
smoothSolver:  Solving for epsilon, Initial residual = 0.00402607, Final residual = 0.000386879, No Iterations 3
smoothSolver:  Solving for k, Initial residual = 0.0050663, Final residual = 0.000447201, No Iterations 4
ExecutionTime = 3.91745 s  ClockTime = 4 s

Time = 99s

smoothSolver:  Solving for Ux, Initial residual = 0.00359701, Final residual = 0.000240607, No Iterations 6
smoothSolver:  Solving for Uy, Initial residual = 0.0246754, Final residual = 0.00185795, No Iterations 6
GAMG:  Solving for p, Initial residual = 0.0148165, Final residual = 0.00136907, No Iterations 4
time step continuity errors : sum local = 0.0627542, global = -0.015289, cumulative = 0.876934
smoothSolver:  Solving for epsilon, Initial residual = 0.00400273, Final residual = 0.000385764, No Iterations 3
smoothSolver:  Solving for k, Initial residual = 0.00507254, Final residual = 0.000449702, No Iterations 4
ExecutionTime = 3.95193 s  ClockTime = 4 s

Time = 100s

smoothSolver:  Solving for Ux, Initial residual = 0.00358779, Final residual = 0.000240007, No Iterations 6
smoothSolver:  Solving for Uy, Initial residual = 0.0248795, Final residual = 0.00187418, No Iterations 6
GAMG:  Solving for p, Initial residual = 0.0147308, Final residual = 0.00134022, No Iterations 5
time step continuity errors : sum local = 0.061308, global = 0.0129751, cumulative = 0.889909
smoothSolver:  Solving for epsilon, Initial residual = 0.00398059, Final residual = 0.00038416, No Iterations 3
smoothSolver:  Solving for k, Initial residual = 0.00504086, Final residual = 0.000449013, No Iterations 4
ExecutionTime = 4.04477 s  ClockTime = 4 s

streamlines streamlines write:
    Seeded 10 particles
    Sampled 12085 locations
Time = 101s

smoothSolver:  Solving for Ux, Initial residual = 0.00357907, Final residual = 0.00023973, No Iterations 6
smoothSolver:  Solving for Uy, Initial residual = 0.0250831, Final residual = 0.00188939, No Iterations 6
GAMG:  Solving for p, Initial residual = 0.0149448, Final residual = 0.00136491, No Iterations 4
time step continuity errors : sum local = 0.0624552, global = -0.0147935, cumulative = 0.875116
smoothSolver:  Solving for epsilon, Initial residual = 0.00397393, Final residual = 0.00038411, No Iterations 3
smoothSolver:  Solving for k, Initial residual = 0.00505331, Final residual = 0.000451665, No Iterations 4
ExecutionTime = 4.19931 s  ClockTime = 4 s

Time = 102s

smoothSolver:  Solving for Ux, Initial residual = 0.00356755, Final residual = 0.000238938, No Iterations 6
smoothSolver:  Solving for Uy, Initial residual = 0.0252725, Final residual = 0.00190482, No Iterations 6
GAMG:  Solving for p, Initial residual = 0.0146305, Final residual = 0.00135521, No Iterations 5
time step continuity errors : sum local = 0.0619498, global = 0.0127648, cumulative = 0.88788
smoothSolver:  Solving for epsilon, Initial residual = 0.00394836, Final residual = 0.000381824, No Iterations 3
smoothSolver:  Solving for k, Initial residual = 0.00506448, Final residual = 0.000453946, No Iterations 4
ExecutionTime = 4.23855 s  ClockTime = 5 s

Time = 103s

smoothSolver:  Solving for Ux, Initial residual = 0.00355636, Final residual = 0.000238555, No Iterations 6
smoothSolver:  Solving for Uy, Initial residual = 0.0254735, Final residual = 0.00191904, No Iterations 6
GAMG:  Solving for p, Initial residual = 0.0146511, Final residual = 0.00137649, No Iterations 4
time step continuity errors : sum local = 0.0624952, global = -0.0141678, cumulative = 0.873713
smoothSolver:  Solving for epsilon, Initial residual = 0.00392996, Final residual = 0.000379215, No Iterations 3
smoothSolver:  Solving for k, Initial residual = 0.00505932, Final residual = 0.000454848, No Iterations 4
ExecutionTime = 4.27685 s  ClockTime = 5 s

Time = 104s

smoothSolver:  Solving for Ux, Initial residual = 0.00354341, Final residual = 0.00023763, No Iterations 6
smoothSolver:  Solving for Uy, Initial residual = 0.0256819, Final residual = 0.00193513, No Iterations 6
GAMG:  Solving for p, Initial residual = 0.0148363, Final residual = 0.00135409, No Iterations 5
time step continuity errors : sum local = 0.0617294, global = 0.0122911, cumulative = 0.886004
smoothSolver:  Solving for epsilon, Initial residual = 0.00391615, Final residual = 0.000377949, No Iterations 3
smoothSolver:  Solving for k, Initial residual = 0.00504756, Final residual = 0.000454728, No Iterations 4
ExecutionTime = 4.31609 s  ClockTime = 5 s

Time = 105s

smoothSolver:  Solving for Ux, Initial residual = 0.00352904, Final residual = 0.000237076, No Iterations 6
smoothSolver:  Solving for Uy, Initial residual = 0.025858, Final residual = 0.00194868, No Iterations 6
GAMG:  Solving for p, Initial residual = 0.0145265, Final residual = 0.00135262, No Iterations 4
time step continuity errors : sum local = 0.0612994, global = -0.0132865, cumulative = 0.872717
smoothSolver:  Solving for epsilon, Initial residual = 0.00390371, Final residual = 0.000376579, No Iterations 3
smoothSolver:  Solving for k, Initial residual = 0.00506753, Final residual = 0.000457739, No Iterations 4
ExecutionTime = 4.35443 s  ClockTime = 5 s

Time = 106s

smoothSolver:  Solving for Ux, Initial residual = 0.00351234, Final residual = 0.000236001, No Iterations 6
smoothSolver:  Solving for Uy, Initial residual = 0.0260606, Final residual = 0.00196308, No Iterations 6
GAMG:  Solving for p, Initial residual = 0.0144802, Final residual = 0.00135014, No Iterations 5
time step continuity errors : sum local = 0.0609971, global = 0.0115839, cumulative = 0.884301
smoothSolver:  Solving for epsilon, Initial residual = 0.00387481, Final residual = 0.000372798, No Iterations 3
smoothSolver:  Solving for k, Initial residual = 0.00506589, Final residual = 0.000457513, No Iterations 4
ExecutionTime = 4.39416 s  ClockTime = 5 s

Time = 107s

smoothSolver:  Solving for Ux, Initial residual = 0.0034984, Final residual = 0.00023536, No Iterations 6
smoothSolver:  Solving for Uy, Initial residual = 0.0262453, Final residual = 0.0019778, No Iterations 6
GAMG:  Solving for p, Initial residual = 0.0146856, Final residual = 0.00132061, No Iterations 4
time step continuity errors : sum local = 0.0596141, global = -0.0123756, cumulative = 0.871925
smoothSolver:  Solving for epsilon, Initial residual = 0.003867, Final residual = 0.000370979, No Iterations 3
smoothSolver:  Solving for k, Initial residual = 0.0050797, Final residual = 0.000458902, No Iterations 4
ExecutionTime = 4.43199 s  ClockTime = 5 s

Time = 108s

smoothSolver:  Solving for Ux, Initial residual = 0.00347774, Final residual = 0.000234123, No Iterations 6
smoothSolver:  Solving for Uy, Initial residual = 0.0264183, Final residual = 0.00199115, No Iterations 6
GAMG:  Solving for p, Initial residual = 0.0143303, Final residual = 0.00130742, No Iterations 5
time step continuity errors : sum local = 0.058865, global = 0.0106735, cumulative = 0.882599
smoothSolver:  Solving for epsilon, Initial residual = 0.00385318, Final residual = 0.000369303, No Iterations 3
smoothSolver:  Solving for k, Initial residual = 0.00507973, Final residual = 0.000459132, No Iterations 4
ExecutionTime = 4.47099 s  ClockTime = 5 s

Time = 109s

smoothSolver:  Solving for Ux, Initial residual = 0.0034621, Final residual = 0.000233454, No Iterations 6
smoothSolver:  Solving for Uy, Initial residual = 0.0266066, Final residual = 0.00200512, No Iterations 6
GAMG:  Solving for p, Initial residual = 0.0143716, Final residual = 0.00121959, No Iterations 4
time step continuity errors : sum local = 0.0545705, global = -0.011365, cumulative = 0.871234
smoothSolver:  Solving for epsilon, Initial residual = 0.00383396, Final residual = 0.000366257, No Iterations 3
smoothSolver:  Solving for k, Initial residual = 0.00510385, Final residual = 0.000461114, No Iterations 4
ExecutionTime = 4.50881 s  ClockTime = 5 s

Time = 110s

smoothSolver:  Solving for Ux, Initial residual = 0.00344079, Final residual = 0.00023222, No Iterations 6
smoothSolver:  Solving for Uy, Initial residual = 0.0268018, Final residual = 0.00202036, No Iterations 6
GAMG:  Solving for p, Initial residual = 0.0147134, Final residual = 0.00121253, No Iterations 5
time step continuity errors : sum local = 0.0542754, global = 0.00859201, cumulative = 0.879826
smoothSolver:  Solving for epsilon, Initial residual = 0.00381696, Final residual = 0.000363947, No Iterations 3
smoothSolver:  Solving for k, Initial residual = 0.00510463, Final residual = 0.000460909, No Iterations 4
ExecutionTime = 4.54792 s  ClockTime = 5 s

Time = 111s

smoothSolver:  Solving for Ux, Initial residual = 0.00342335, Final residual = 0.000231574, No Iterations 6
smoothSolver:  Solving for Uy, Initial residual = 0.0269555, Final residual = 0.00203426, No Iterations 6
GAMG:  Solving for p, Initial residual = 0.0142912, Final residual = 0.00125732, No Iterations 4
time step continuity errors : sum local = 0.0560276, global = -0.0106952, cumulative = 0.869131
smoothSolver:  Solving for epsilon, Initial residual = 0.00380929, Final residual = 0.000363269, No Iterations 3
smoothSolver:  Solving for k, Initial residual = 0.00511384, Final residual = 0.000460838, No Iterations 4
ExecutionTime = 4.58583 s  ClockTime = 5 s

Time = 112s

smoothSolver:  Solving for Ux, Initial residual = 0.00340096, Final residual = 0.000230212, No Iterations 6
smoothSolver:  Solving for Uy, Initial residual = 0.0271149, Final residual = 0.00204709, No Iterations 6
GAMG:  Solving for p, Initial residual = 0.0143178, Final residual = 0.00119795, No Iterations 5
time step continuity errors : sum local = 0.0531999, global = 0.00859274, cumulative = 0.877724
smoothSolver:  Solving for epsilon, Initial residual = 0.00378542, Final residual = 0.000359479, No Iterations 3
smoothSolver:  Solving for k, Initial residual = 0.0051304, Final residual = 0.000461486, No Iterations 4
ExecutionTime = 4.62495 s  ClockTime = 5 s

Time = 113s

smoothSolver:  Solving for Ux, Initial residual = 0.0033856, Final residual = 0.000229544, No Iterations 6
smoothSolver:  Solving for Uy, Initial residual = 0.0273018, Final residual = 0.00206333, No Iterations 6
GAMG:  Solving for p, Initial residual = 0.0147067, Final residual = 0.00106185, No Iterations 4
time step continuity errors : sum local = 0.0471189, global = -0.00904379, cumulative = 0.86868
smoothSolver:  Solving for epsilon, Initial residual = 0.00377943, Final residual = 0.000358829, No Iterations 3
smoothSolver:  Solving for k, Initial residual = 0.0051467, Final residual = 0.000462163, No Iterations 4
ExecutionTime = 4.66267 s  ClockTime = 5 s

Time = 114s

smoothSolver:  Solving for Ux, Initial residual = 0.00335934, Final residual = 0.000228272, No Iterations 6
smoothSolver:  Solving for Uy, Initial residual = 0.0274841, Final residual = 0.00207828, No Iterations 6
GAMG:  Solving for p, Initial residual = 0.0142151, Final residual = 0.00106608, No Iterations 5
time step continuity errors : sum local = 0.0470128, global = 0.00672193, cumulative = 0.875402
smoothSolver:  Solving for epsilon, Initial residual = 0.00376956, Final residual = 0.00035805, No Iterations 3
smoothSolver:  Solving for k, Initial residual = 0.00515993, Final residual = 0.000462534, No Iterations 4
ExecutionTime = 4.70163 s  ClockTime = 5 s

Time = 115s

smoothSolver:  Solving for Ux, Initial residual = 0.00334491, Final residual = 0.000227981, No Iterations 6
smoothSolver:  Solving for Uy, Initial residual = 0.0276339, Final residual = 0.00209321, No Iterations 6
GAMG:  Solving for p, Initial residual = 0.0144364, Final residual = 0.00104427, No Iterations 4
time step continuity errors : sum local = 0.045847, global = -0.0082632, cumulative = 0.867138
smoothSolver:  Solving for epsilon, Initial residual = 0.00376184, Final residual = 0.00035534, No Iterations 3
smoothSolver:  Solving for k, Initial residual = 0.00516819, Final residual = 0.000462153, No Iterations 4
ExecutionTime = 4.73939 s  ClockTime = 5 s

Time = 116s

[...]
time step continuity errors : sum local = 0.00737624, global = 0.000379503, cumulative = 0.717118
smoothSolver:  Solving for epsilon, Initial residual = 0.000332366, Final residual = 2.43966e-05, No Iterations 3
smoothSolver:  Solving for k, Initial residual = 0.00056718, Final residual = 3.53183e-05, No Iterations 4
ExecutionTime = 10.1961 s  ClockTime = 10 s

Time = 259s

smoothSolver:  Solving for Ux, Initial residual = 0.000310833, Final residual = 2.11306e-05, No Iterations 6
smoothSolver:  Solving for Uy, Initial residual = 0.00256135, Final residual = 0.000182741, No Iterations 6
GAMG:  Solving for p, Initial residual = 0.00232665, Final residual = 0.000165305, No Iterations 5
time step continuity errors : sum local = 0.00700364, global = 0.000337186, cumulative = 0.717455
smoothSolver:  Solving for epsilon, Initial residual = 0.000327781, Final residual = 2.37614e-05, No Iterations 3
smoothSolver:  Solving for k, Initial residual = 0.000553871, Final residual = 3.42159e-05, No Iterations 4
ExecutionTime = 10.2321 s  ClockTime = 11 s

Time = 260s

smoothSolver:  Solving for Ux, Initial residual = 0.000302913, Final residual = 2.05815e-05, No Iterations 6
smoothSolver:  Solving for Uy, Initial residual = 0.00252521, Final residual = 0.000176296, No Iterations 6
GAMG:  Solving for p, Initial residual = 0.00348848, Final residual = 0.000331084, No Iterations 3
time step continuity errors : sum local = 0.0140615, global = 0.000859477, cumulative = 0.718315
smoothSolver:  Solving for epsilon, Initial residual = 0.000318702, Final residual = 2.30183e-05, No Iterations 3
smoothSolver:  Solving for k, Initial residual = 0.000538975, Final residual = 3.32074e-05, No Iterations 4
ExecutionTime = 10.2658 s  ClockTime = 11 s

Time = 261s

smoothSolver:  Solving for Ux, Initial residual = 0.000293157, Final residual = 2.00409e-05, No Iterations 6
smoothSolver:  Solving for Uy, Initial residual = 0.00243605, Final residual = 0.000169457, No Iterations 6
GAMG:  Solving for p, Initial residual = 0.002508, Final residual = 0.000245033, No Iterations 4
time step continuity errors : sum local = 0.0104056, global = -0.000735191, cumulative = 0.717579
smoothSolver:  Solving for epsilon, Initial residual = 0.000306597, Final residual = 2.22692e-05, No Iterations 3
smoothSolver:  Solving for k, Initial residual = 0.000522328, Final residual = 3.21049e-05, No Iterations 4
ExecutionTime = 10.3003 s  ClockTime = 11 s

Time = 262s

smoothSolver:  Solving for Ux, Initial residual = 0.000283374, Final residual = 1.9432e-05, No Iterations 6
smoothSolver:  Solving for Uy, Initial residual = 0.00233624, Final residual = 0.000162243, No Iterations 6
GAMG:  Solving for p, Initial residual = 0.0022973, Final residual = 0.000160409, No Iterations 5
time step continuity errors : sum local = 0.00680782, global = 0.000305034, cumulative = 0.717885
smoothSolver:  Solving for epsilon, Initial residual = 0.000296366, Final residual = 2.15676e-05, No Iterations 3
smoothSolver:  Solving for k, Initial residual = 0.00050809, Final residual = 3.12146e-05, No Iterations 4
ExecutionTime = 10.3363 s  ClockTime = 11 s

Time = 263s

smoothSolver:  Solving for Ux, Initial residual = 0.000275549, Final residual = 1.89708e-05, No Iterations 6
smoothSolver:  Solving for Uy, Initial residual = 0.00225564, Final residual = 0.00015491, No Iterations 6
GAMG:  Solving for p, Initial residual = 0.00218367, Final residual = 0.000210104, No Iterations 4
time step continuity errors : sum local = 0.0089162, global = -0.000612321, cumulative = 0.717272
smoothSolver:  Solving for epsilon, Initial residual = 0.000289859, Final residual = 2.08683e-05, No Iterations 3
smoothSolver:  Solving for k, Initial residual = 0.000493411, Final residual = 3.02714e-05, No Iterations 4
ExecutionTime = 10.3708 s  ClockTime = 11 s

Time = 264s

smoothSolver:  Solving for Ux, Initial residual = 0.000269412, Final residual = 1.85607e-05, No Iterations 6
smoothSolver:  Solving for Uy, Initial residual = 0.00216022, Final residual = 0.000147912, No Iterations 6
GAMG:  Solving for p, Initial residual = 0.00306223, Final residual = 0.000226609, No Iterations 4
time step continuity errors : sum local = 0.00965325, global = -0.000688424, cumulative = 0.716584
smoothSolver:  Solving for epsilon, Initial residual = 0.000280623, Final residual = 1.99756e-05, No Iterations 3
smoothSolver:  Solving for k, Initial residual = 0.000477654, Final residual = 2.91716e-05, No Iterations 4
ExecutionTime = 10.4052 s  ClockTime = 11 s

Time = 265s

smoothSolver:  Solving for Ux, Initial residual = 0.000261792, Final residual = 1.80777e-05, No Iterations 6
smoothSolver:  Solving for Uy, Initial residual = 0.00207769, Final residual = 0.000140952, No Iterations 6
GAMG:  Solving for p, Initial residual = 0.00207451, Final residual = 0.000158529, No Iterations 5
time step continuity errors : sum local = 0.00673895, global = 0.00051861, cumulative = 0.717102
smoothSolver:  Solving for epsilon, Initial residual = 0.000271216, Final residual = 1.91873e-05, No Iterations 3
smoothSolver:  Solving for k, Initial residual = 0.000463062, Final residual = 2.82147e-05, No Iterations 4
ExecutionTime = 10.441 s  ClockTime = 11 s

Time = 266s

smoothSolver:  Solving for Ux, Initial residual = 0.00025465, Final residual = 1.75074e-05, No Iterations 6
smoothSolver:  Solving for Uy, Initial residual = 0.00201828, Final residual = 0.000133831, No Iterations 6
GAMG:  Solving for p, Initial residual = 0.00222492, Final residual = 0.000189076, No Iterations 4
time step continuity errors : sum local = 0.0080336, global = -0.000615703, cumulative = 0.716487
smoothSolver:  Solving for epsilon, Initial residual = 0.00026249, Final residual = 1.83819e-05, No Iterations 3
smoothSolver:  Solving for k, Initial residual = 0.000447751, Final residual = 2.71624e-05, No Iterations 4
ExecutionTime = 10.4763 s  ClockTime = 11 s

Time = 267s

smoothSolver:  Solving for Ux, Initial residual = 0.000247732, Final residual = 1.70161e-05, No Iterations 6
smoothSolver:  Solving for Uy, Initial residual = 0.00192613, Final residual = 0.000126729, No Iterations 6
GAMG:  Solving for p, Initial residual = 0.00243088, Final residual = 0.00019898, No Iterations 4
time step continuity errors : sum local = 0.00846648, global = -0.000691458, cumulative = 0.715795
smoothSolver:  Solving for epsilon, Initial residual = 0.000250172, Final residual = 1.75861e-05, No Iterations 3
smoothSolver:  Solving for k, Initial residual = 0.000431399, Final residual = 2.61127e-05, No Iterations 4
ExecutionTime = 10.5116 s  ClockTime = 11 s

Time = 268s

smoothSolver:  Solving for Ux, Initial residual = 0.000241031, Final residual = 1.65117e-05, No Iterations 6
smoothSolver:  Solving for Uy, Initial residual = 0.00182814, Final residual = 0.000120657, No Iterations 6
GAMG:  Solving for p, Initial residual = 0.00194073, Final residual = 0.000190147, No Iterations 4
time step continuity errors : sum local = 0.00808013, global = -0.000638919, cumulative = 0.715156
smoothSolver:  Solving for epsilon, Initial residual = 0.000240476, Final residual = 1.67805e-05, No Iterations 3
smoothSolver:  Solving for k, Initial residual = 0.000415599, Final residual = 2.51641e-05, No Iterations 4
ExecutionTime = 10.5468 s  ClockTime = 11 s

Time = 269s

smoothSolver:  Solving for Ux, Initial residual = 0.000234417, Final residual = 1.59329e-05, No Iterations 6
smoothSolver:  Solving for Uy, Initial residual = 0.00176071, Final residual = 0.000114128, No Iterations 6
GAMG:  Solving for p, Initial residual = 0.00222788, Final residual = 0.000186253, No Iterations 4
time step continuity errors : sum local = 0.00791915, global = -0.000668769, cumulative = 0.714488
smoothSolver:  Solving for epsilon, Initial residual = 0.000232634, Final residual = 1.59975e-05, No Iterations 3
smoothSolver:  Solving for k, Initial residual = 0.000401366, Final residual = 2.42144e-05, No Iterations 4
ExecutionTime = 10.5819 s  ClockTime = 11 s

Time = 270s

smoothSolver:  Solving for Ux, Initial residual = 0.000227528, Final residual = 1.53586e-05, No Iterations 6
smoothSolver:  Solving for Uy, Initial residual = 0.00169306, Final residual = 0.000168558, No Iterations 5
GAMG:  Solving for p, Initial residual = 0.00216477, Final residual = 0.00017628, No Iterations 4
time step continuity errors : sum local = 0.00750025, global = -0.000666776, cumulative = 0.713821
smoothSolver:  Solving for epsilon, Initial residual = 0.000223789, Final residual = 1.527e-05, No Iterations 3
smoothSolver:  Solving for k, Initial residual = 0.000385605, Final residual = 2.33222e-05, No Iterations 4
ExecutionTime = 10.616 s  ClockTime = 11 s

Time = 271s

smoothSolver:  Solving for Ux, Initial residual = 0.000219162, Final residual = 1.4705e-05, No Iterations 6
smoothSolver:  Solving for Uy, Initial residual = 0.00162481, Final residual = 0.000105765, No Iterations 6
GAMG:  Solving for p, Initial residual = 0.00176186, Final residual = 0.000162946, No Iterations 4
time step continuity errors : sum local = 0.00692385, global = -0.000537713, cumulative = 0.713283
smoothSolver:  Solving for epsilon, Initial residual = 0.000216858, Final residual = 1.45783e-05, No Iterations 3
smoothSolver:  Solving for k, Initial residual = 0.000371984, Final residual = 2.23417e-05, No Iterations 4
ExecutionTime = 10.6505 s  ClockTime = 11 s

Time = 272s

smoothSolver:  Solving for Ux, Initial residual = 0.000212842, Final residual = 1.4123e-05, No Iterations 6
smoothSolver:  Solving for Uy, Initial residual = 0.00157895, Final residual = 0.000155006, No Iterations 5
GAMG:  Solving for p, Initial residual = 0.00220879, Final residual = 0.0002188, No Iterations 3
time step continuity errors : sum local = 0.00929503, global = 0.000620299, cumulative = 0.713903
smoothSolver:  Solving for epsilon, Initial residual = 0.000208592, Final residual = 1.38882e-05, No Iterations 3
smoothSolver:  Solving for k, Initial residual = 0.000356802, Final residual = 2.14968e-05, No Iterations 4
ExecutionTime = 10.6833 s  ClockTime = 11 s

Time = 273s

smoothSolver:  Solving for Ux, Initial residual = 0.000204934, Final residual = 1.35098e-05, No Iterations 6
smoothSolver:  Solving for Uy, Initial residual = 0.00149705, Final residual = 0.000149351, No Iterations 5
GAMG:  Solving for p, Initial residual = 0.00180547, Final residual = 0.000153569, No Iterations 4
time step continuity errors : sum local = 0.00652471, global = 0.000741908, cumulative = 0.714645
smoothSolver:  Solving for epsilon, Initial residual = 0.000198303, Final residual = 1.33299e-05, No Iterations 3
smoothSolver:  Solving for k, Initial residual = 0.000343745, Final residual = 2.0677e-05, No Iterations 4
ExecutionTime = 10.7174 s  ClockTime = 11 s

Time = 274s

smoothSolver:  Solving for Ux, Initial residual = 0.000197018, Final residual = 1.27833e-05, No Iterations 6
smoothSolver:  Solving for Uy, Initial residual = 0.00145132, Final residual = 9.4252e-05, No Iterations 6
GAMG:  Solving for p, Initial residual = 0.00241774, Final residual = 0.000200014, No Iterations 3
time step continuity errors : sum local = 0.00849934, global = -0.000793353, cumulative = 0.713852
smoothSolver:  Solving for epsilon, Initial residual = 0.000191379, Final residual = 1.2705e-05, No Iterations 3
smoothSolver:  Solving for k, Initial residual = 0.000329984, Final residual = 1.98805e-05, No Iterations 4
ExecutionTime = 10.7507 s  ClockTime = 11 s

Time = 275s

smoothSolver:  Solving for Ux, Initial residual = 0.000190621, Final residual = 1.23149e-05, No Iterations 6
smoothSolver:  Solving for Uy, Initial residual = 0.00141106, Final residual = 0.000138543, No Iterations 5
GAMG:  Solving for p, Initial residual = 0.00189934, Final residual = 0.000175939, No Iterations 3
time step continuity errors : sum local = 0.00746935, global = -0.000399009, cumulative = 0.713453
smoothSolver:  Solving for epsilon, Initial residual = 0.000184636, Final residual = 1.21514e-05, No Iterations 3
smoothSolver:  Solving for k, Initial residual = 0.000317558, Final residual = 1.91037e-05, No Iterations 4
ExecutionTime = 10.7836 s  ClockTime = 11 s

Time = 276s

smoothSolver:  Solving for Ux, Initial residual = 0.000182649, Final residual = 1.17215e-05, No Iterations 6
smoothSolver:  Solving for Uy, Initial residual = 0.00135326, Final residual = 0.000134856, No Iterations 5
GAMG:  Solving for p, Initial residual = 0.00175386, Final residual = 0.000142069, No Iterations 4
time step continuity errors : sum local = 0.00602485, global = 0.000778144, cumulative = 0.714231
smoothSolver:  Solving for epsilon, Initial residual = 0.000178419, Final residual = 1.15917e-05, No Iterations 3
smoothSolver:  Solving for k, Initial residual = 0.000305131, Final residual = 1.8398e-05, No Iterations 4
ExecutionTime = 10.8176 s  ClockTime = 11 s

Time = 277s

smoothSolver:  Solving for Ux, Initial residual = 0.000173843, Final residual = 1.734e-05, No Iterations 5
smoothSolver:  Solving for Uy, Initial residual = 0.00129447, Final residual = 8.61104e-05, No Iterations 6
GAMG:  Solving for p, Initial residual = 0.00189135, Final residual = 0.000173306, No Iterations 3
time step continuity errors : sum local = 0.00735016, global = -0.000468402, cumulative = 0.713763
smoothSolver:  Solving for epsilon, Initial residual = 0.000173035, Final residual = 1.11087e-05, No Iterations 3
smoothSolver:  Solving for k, Initial residual = 0.000294095, Final residual = 1.77354e-05, No Iterations 4
ExecutionTime = 10.8504 s  ClockTime = 11 s

Time = 278s

smoothSolver:  Solving for Ux, Initial residual = 0.000168273, Final residual = 1.67279e-05, No Iterations 5
smoothSolver:  Solving for Uy, Initial residual = 0.00121461, Final residual = 8.14689e-05, No Iterations 6
GAMG:  Solving for p, Initial residual = 0.00161415, Final residual = 0.000143054, No Iterations 4
time step continuity errors : sum local = 0.00606386, global = 0.000760191, cumulative = 0.714523
smoothSolver:  Solving for epsilon, Initial residual = 0.000168477, Final residual = 1.07194e-05, No Iterations 3
smoothSolver:  Solving for k, Initial residual = 0.00028303, Final residual = 1.71063e-05, No Iterations 4
ExecutionTime = 10.8853 s  ClockTime = 11 s

Time = 279s

smoothSolver:  Solving for Ux, Initial residual = 0.000162459, Final residual = 1.59709e-05, No Iterations 5
smoothSolver:  Solving for Uy, Initial residual = 0.00118191, Final residual = 7.90466e-05, No Iterations 6
GAMG:  Solving for p, Initial residual = 0.00244081, Final residual = 0.00017772, No Iterations 3
time step continuity errors : sum local = 0.00753319, global = -0.000743299, cumulative = 0.71378
smoothSolver:  Solving for epsilon, Initial residual = 0.000161499, Final residual = 1.02709e-05, No Iterations 3
smoothSolver:  Solving for k, Initial residual = 0.000272298, Final residual = 1.64826e-05, No Iterations 4
ExecutionTime = 10.9182 s  ClockTime = 11 s

Time = 280s

smoothSolver:  Solving for Ux, Initial residual = 0.000155656, Final residual = 1.52503e-05, No Iterations 5
smoothSolver:  Solving for Uy, Initial residual = 0.00116313, Final residual = 7.69742e-05, No Iterations 6
GAMG:  Solving for p, Initial residual = 0.00195588, Final residual = 0.000184123, No Iterations 3
time step continuity errors : sum local = 0.00780175, global = -0.000635287, cumulative = 0.713144
smoothSolver:  Solving for epsilon, Initial residual = 0.000155041, Final residual = 9.87559e-06, No Iterations 3
smoothSolver:  Solving for k, Initial residual = 0.000261719, Final residual = 1.59374e-05, No Iterations 4
ExecutionTime = 10.9517 s  ClockTime = 11 s

Time = 281s

smoothSolver:  Solving for Ux, Initial residual = 0.00014844, Final residual = 1.45768e-05, No Iterations 5
smoothSolver:  Solving for Uy, Initial residual = 0.0011121, Final residual = 7.59748e-05, No Iterations 6
GAMG:  Solving for p, Initial residual = 0.00161528, Final residual = 0.000149611, No Iterations 4
time step continuity errors : sum local = 0.00633308, global = 0.000776898, cumulative = 0.713921
smoothSolver:  Solving for epsilon, Initial residual = 0.000150414, Final residual = 9.52782e-06, No Iterations 3
smoothSolver:  Solving for k, Initial residual = 0.000252599, Final residual = 1.54022e-05, No Iterations 4
ExecutionTime = 10.9859 s  ClockTime = 11 s

Time = 282s

smoothSolver:  Solving for Ux, Initial residual = 0.000141021, Final residual = 1.38107e-05, No Iterations 5
smoothSolver:  Solving for Uy, Initial residual = 0.00106527, Final residual = 7.44609e-05, No Iterations 6
GAMG:  Solving for p, Initial residual = 0.0015414, Final residual = 0.000127527, No Iterations 4
time step continuity errors : sum local = 0.00539192, global = 0.000596407, cumulative = 0.714518
smoothSolver:  Solving for epsilon, Initial residual = 0.000147322, Final residual = 9.26016e-06, No Iterations 3
smoothSolver:  Solving for k, Initial residual = 0.000243857, Final residual = 1.4878e-05, No Iterations 4
ExecutionTime = 11.02 s  ClockTime = 11 s

Time = 283s

smoothSolver:  Solving for Ux, Initial residual = 0.000136028, Final residual = 1.32603e-05, No Iterations 5
smoothSolver:  Solving for Uy, Initial residual = 0.00107534, Final residual = 7.29428e-05, No Iterations 6
GAMG:  Solving for p, Initial residual = 0.00174139, Final residual = 0.000156972, No Iterations 3
time step continuity errors : sum local = 0.00663316, global = -0.000493114, cumulative = 0.714024
smoothSolver:  Solving for epsilon, Initial residual = 0.000145893, Final residual = 9.03593e-06, No Iterations 3
smoothSolver:  Solving for k, Initial residual = 0.000237046, Final residual = 1.44311e-05, No Iterations 4
ExecutionTime = 11.0529 s  ClockTime = 11 s

Time = 284s

smoothSolver:  Solving for Ux, Initial residual = 0.000131133, Final residual = 1.28406e-05, No Iterations 5
smoothSolver:  Solving for Uy, Initial residual = 0.00104952, Final residual = 7.08913e-05, No Iterations 6
GAMG:  Solving for p, Initial residual = 0.00157046, Final residual = 0.000128416, No Iterations 4
time step continuity errors : sum local = 0.00543223, global = 0.000631158, cumulative = 0.714656
smoothSolver:  Solving for epsilon, Initial residual = 0.0001417, Final residual = 8.85754e-06, No Iterations 3
smoothSolver:  Solving for k, Initial residual = 0.000229425, Final residual = 1.40595e-05, No Iterations 4
ExecutionTime = 11.087 s  ClockTime = 11 s

Time = 285s

smoothSolver:  Solving for Ux, Initial residual = 0.000125234, Final residual = 1.23148e-05, No Iterations 5
smoothSolver:  Solving for Uy, Initial residual = 0.00100489, Final residual = 6.87913e-05, No Iterations 6
GAMG:  Solving for p, Initial residual = 0.00115928, Final residual = 8.12033e-05, No Iterations 5
time step continuity errors : sum local = 0.00342968, global = -0.000264336, cumulative = 0.714391
smoothSolver:  Solving for epsilon, Initial residual = 0.000136441, Final residual = 8.76233e-06, No Iterations 3
smoothSolver:  Solving for k, Initial residual = 0.000223256, Final residual = 1.36736e-05, No Iterations 4
ExecutionTime = 11.1223 s  ClockTime = 11 s

Time = 286s

smoothSolver:  Solving for Ux, Initial residual = 0.000121621, Final residual = 1.19474e-05, No Iterations 5
smoothSolver:  Solving for Uy, Initial residual = 0.000988614, Final residual = 6.70939e-05, No Iterations 6
GAMG:  Solving for p, Initial residual = 0.00134638, Final residual = 0.00010499, No Iterations 4
time step continuity errors : sum local = 0.0044293, global = 0.000501573, cumulative = 0.714893
smoothSolver:  Solving for epsilon, Initial residual = 0.000134768, Final residual = 8.78789e-06, No Iterations 3
smoothSolver:  Solving for k, Initial residual = 0.000218617, Final residual = 1.34194e-05, No Iterations 4
ExecutionTime = 11.1564 s  ClockTime = 11 s


SIMPLE solution converged in 286 iterations

streamlines streamlines write:
    Seeded 10 particles
    Sampled 12040 locations
End

