/*---------------------------------------------------------------------------*\
  =========                 |
  \\      /  F ield         | OpenFOAM: The Open Source CFD Toolbox
   \\    /   O peration     | Website:  https://openfoam.org
    \\  /    A nd           | Version:  13
     \\/     M anipulation  |
\*---------------------------------------------------------------------------*/
Build  : 13-19a3d5400c8c
Exec   : blockMesh
Date   : Jun 23 2026
Time   : 13:54:30
Host   : "kol-serv"
PID    : 1257742
I/O    : uncollated
Case   : /home/kol/OpenFOAM/OpenFOAM-13/test/Lagrangian/injections
nProcs : 1
sigFpe : Enabling floating point exception trapping (FOAM_SIGFPE).
fileModificationChecking : Monitoring run-time modified files using timeStampMaster (fileModificationSkew 10)
allowSystemOperations : Allowing user-supplied system call operations

// * * * * * * * * * * * * * * * * * * * * * * * * * * * * * * * * * * * * * //
Create time

Reading "blockMeshDict"

Creating block mesh from
    "system/blockMeshDict"
Creating block edges
No non-planar block faces defined
Creating topology blocks
Creating topology patches

Creating block mesh topology

Basic statistics
    Number of internal faces : 2
    Number of boundary faces : 14
    Number of defined boundary faces : 14
    Number of undefined boundary faces : 0

Checking topology
Creating block offsets
Creating merge list .

Creating polyMesh from blockMesh
Creating patches
Creating cells
Creating points with scale 0.005
    Block 0 cell size :
        i : 0.01
        j : 0.01
        k : 0.01
    Block 1 cell size :
        i : 0.01
        j : 0.01
        k : 0.01
    Block 2 cell size :
        i : 0.01
        j : 0.01
        k : 0.01

No patch pairs to merge

Adding cell zones
    0	cells12

Writing polyMesh
----------------
Mesh Information
----------------
  boundingBox: (-0.005 -0.005 -0.005) (0.025 0.005 0.005)
  nPoints: 16
  nCells: 3
  nFaces: 16
  nInternalFaces: 2
----------------
Patches
----------------
  patch 0 (start: 2 size: 1) name: inlet
  patch 1 (start: 3 size: 1) name: outlet
  patch 2 (start: 4 size: 3) name: bottom
  patch 3 (start: 7 size: 3) name: top
  patch 4 (start: 10 size: 6) name: frontAndBack

End

