/*---------------------------------------------------------------------------*\
  =========                 |
  \\      /  F ield         | OpenFOAM: The Open Source CFD Toolbox
   \\    /   O peration     | Website:  https://openfoam.org
    \\  /    A nd           | Version:  13
     \\/     M anipulation  |
\*---------------------------------------------------------------------------*/
Build  : 13-19a3d5400c8c
Exec   : foamRun
Date   : Jun 23 2026
Time   : 13:54:30
Host   : "kol-serv"
PID    : 1257753
I/O    : uncollated
Case   : /home/kol/OpenFOAM/OpenFOAM-13/test/Lagrangian/injections
nProcs : 1
sigFpe : Enabling floating point exception trapping (FOAM_SIGFPE).
fileModificationChecking : Monitoring run-time modified files using timeStampMaster (fileModificationSkew 10)
allowSystemOperations : Allowing user-supplied system call operations

// * * * * * * * * * * * * * * * * * * * * * * * * * * * * * * * * * * * * * //
Create time

Create mesh for time = 0

Selecting solver functions
Selecting solver fluid
Selecting thermodynamics package 
{
    type            heRhoThermo;
    mixture         pureMixture;
    transport       const;
    thermo          eConst;
    equationOfState perfectGas;
    specie          specie;
    energy          sensibleInternalEnergy;
}

Selecting turbulence model type laminar
    Selecting laminar stress model Stokes
No MRF models present

Courant Number mean: 0 max: 0
Selecting thermophysical transport type laminar
Selecting default laminar thermophysical transport model unityLewisFourier

PIMPLE: No convergence criteria found


PIMPLE: Operating solver in transient mode with 1 outer corrector
PIMPLE: Operating solver in PISO mode



Starting time loop

Selecting distribution type RosinRammler
    min/average/max value = 0.0001/0.000890628/0.0015
Selecting distribution type RosinRammler
    min/average/max value = 0.0001/0.000890628/0.0015
Selecting distribution type RosinRammler
    min/average/max value = 0.0001/0.000890628/0.0015
Selecting LagrangianModel with name pointInjection1 of type pointInjection
Selecting LagrangianModel with name pointInjection2 of type pointInjection
Selecting LagrangianModel with name pointInjection3 of type pointInjection
Selecting distribution type RosinRammler
    min/average/max value = 0.0001/0.000890628/0.0015
Selecting LagrangianModel with name pointInjection of type pointInjection
Selecting distribution type RosinRammler
    min/average/max value = 0.0001/0.000890628/0.0015
Selecting LagrangianModel with name volumeInjection of type volumeInjection
Selecting LagrangianModel with name patchInjection of type patchInjection
Selecting LagrangianModel with name diskInjection of type diskInjection
Selecting distribution type RosinRammler
    min/average/max value = 0.0001/0.000890628/0.0015
Selecting LagrangianModel with name manualInjection of type manualInjection
Time = 0.01s

ExecutionTime = 5.8688 s  ClockTime = 6 s

Solving cloud kinematicParticle:
    complete inInternalMesh inlet outlet bottom top frontAndBack toBeRemoved
           0            300     0      0      0   0            0           0
         300              0     0      0      0   0            0           0
         300              0     0      0      0   0            0           0

Solving cloud kinematicParcel:
    complete inInternalMesh inlet outlet bottom top frontAndBack toBeRemoved
           0           1000     0      0      0   0            0           0
        1000              0     0      0      0   0            0           0
        1000              0     0      0      0   0            0           0

Solving cloud particle:
    complete inInternalMesh inlet outlet bottom top frontAndBack toBeRemoved
           0           2000     0      0      0   0            0           0
        2000              0     0      0      0   0            0           0
        2000              0     0      0      0   0            0           0

Solving cloud parcel:
    complete inInternalMesh inlet outlet bottom top frontAndBack toBeRemoved
           0            375     0      0      0   0            0           0
         351              0     0      0     24   0            0           0
         351             24     0      0      0   0            0           0
         375              0     0      0      0   0            0           0
         375              0     0      0      0   0            0           0

Time = 0.02s

ExecutionTime = 7.73418 s  ClockTime = 8 s

Solving cloud kinematicParticle:
    complete inInternalMesh inlet outlet bottom top frontAndBack toBeRemoved
           0            600     0      0      0   0            0           0
         600              0     0      0      0   0            0           0
         600              0     0      0      0   0            0           0

Solving cloud kinematicParcel:
    complete inInternalMesh inlet outlet bottom top frontAndBack toBeRemoved
           0           2000     0      0      0   0            0           0
        2000              0     0      0      0   0            0           0
        2000              0     0      0      0   0            0           0

Solving cloud particle:
    complete inInternalMesh inlet outlet bottom top frontAndBack toBeRemoved
           0           4000     0      0      0   0            0           0
        4000              0     0      0      0   0            0           0
        4000              0     0      0      0   0            0           0

Solving cloud parcel:
    complete inInternalMesh inlet outlet bottom top frontAndBack toBeRemoved
           0            375     0      0      0   0            0           0
         324              0     0      0     51   0            0           0
         324             51     0      0      0   0            0           0
         375              0     0      0      0   0            0           0
         375              0     0      0      0   0            0           0

Time = 0.03s

ExecutionTime = 7.75399 s  ClockTime = 8 s

Solving cloud kinematicParticle:
    complete inInternalMesh inlet outlet bottom top frontAndBack toBeRemoved
           0            900     0      0      0   0            0           0
         736              0     0      0     36  28          100           0
         736            136     0      0      0  28            0           0
         900              0     0      0      0   0            0           0
         900              0     0      0      0   0            0           0

Solving cloud kinematicParcel:
    complete inInternalMesh inlet outlet bottom top frontAndBack toBeRemoved
           0           3000     0      0      0   0            0           0
        3000              0     0      0      0   0            0           0
        3000              0     0      0      0   0            0           0

Solving cloud particle:
    complete inInternalMesh inlet outlet bottom top frontAndBack toBeRemoved
           0          10000     0      0      0   0            0           0
       10000              0     0      0      0   0            0           0
       10000              0     0      0      0   0            0           0

Solving cloud parcel:
    complete inInternalMesh inlet outlet bottom top frontAndBack toBeRemoved
           0            375     0      0      0   0            0           0
         349              0     0      0     26   0            0           0
         349             26     0      0      0   0            0           0
         375              0     0      0      0   0            0           0
         375              0     0      0      0   0            0           0

Time = 0.04s

ExecutionTime = 7.77918 s  ClockTime = 8 s

Solving cloud kinematicParticle:
    complete inInternalMesh inlet outlet bottom top frontAndBack toBeRemoved
           0           1172     0      0      0  28            0           0
         921              0     0      0     64  70          145           0
         921            209     0      0      0  70            0           0
        1200              0     0      0      0   0            0           0
        1200              0     0      0      0   0            0           0

Solving cloud kinematicParcel:
    complete inInternalMesh inlet outlet bottom top frontAndBack toBeRemoved
           0           4000     0      0      0   0            0           0
        4000              0     0      0      0   0            0           0
        4000              0     0      0      0   0            0           0

Solving cloud particle:
    complete inInternalMesh inlet outlet bottom top frontAndBack toBeRemoved
           0          12000     0      0      0   0            0           0
       12000              0     0      0      0   0            0           0
       12000              0     0      0      0   0            0           0

Solving cloud parcel:
    complete inInternalMesh inlet outlet bottom top frontAndBack toBeRemoved
           0            375     0      0      0   0            0           0
         326              0     0      0     49   0            0           0
         326             49     0      0      0   0            0           0
         375              0     0      0      0   0            0           0
         375              0     0      0      0   0            0           0

Time = 0.05s

ExecutionTime = 7.80456 s  ClockTime = 8 s

Solving cloud kinematicParticle:
    complete inInternalMesh inlet outlet bottom top frontAndBack toBeRemoved
           0           1402     0      0      0  98            0           0
        1168             96     0      0     62  67          107           0
        1168            265     0      0      0  67            0           0
        1500              0     0      0      0   0            0           0
        1500              0     0      0      0   0            0           0

Solving cloud kinematicParcel:
    complete inInternalMesh inlet outlet bottom top frontAndBack toBeRemoved
           0           5000     0      0      0   0            0           0
        5000              0     0      0      0   0            0           0
        5000              0     0      0      0   0            0           0

Solving cloud particle:
    complete inInternalMesh inlet outlet bottom top frontAndBack toBeRemoved
           0          14000     0      0      0   0            0           0
       14000              0     0      0      0   0            0           0
       14000              0     0      0      0   0            0           0

Solving cloud parcel:
    complete inInternalMesh inlet outlet bottom top frontAndBack toBeRemoved
           0            375     0      0      0   0            0           0
         353              0     0      0     22   0            0           0
         353             22     0      0      0   0            0           0
         375              0     0      0      0   0            0           0
         375              0     0      0      0   0            0           0

End

