/*---------------------------------------------------------------------------*\
  =========                 |
  \\      /  F ield         | OpenFOAM: The Open Source CFD Toolbox
   \\    /   O peration     | Website:  https://openfoam.org
    \\  /    A nd           | Version:  13
     \\/     M anipulation  |
\*---------------------------------------------------------------------------*/
Build  : 13-19a3d5400c8c
Exec   : foamRun
Date   : Jun 23 2026
Time   : 13:54:38
Host   : "kol-serv"
PID    : 1258373
I/O    : uncollated
Case   : /home/kol/OpenFOAM/OpenFOAM-13/test/Lagrangian/parabolic
nProcs : 1
sigFpe : Enabling floating point exception trapping (FOAM_SIGFPE).
fileModificationChecking : Monitoring run-time modified files using timeStampMaster (fileModificationSkew 10)
allowSystemOperations : Allowing user-supplied system call operations

// * * * * * * * * * * * * * * * * * * * * * * * * * * * * * * * * * * * * * //
Create time

Create mesh for time = 0

Selecting solver functions
Selecting solver incompressibleFluid
Selecting viscosity model Newtonian
Selecting turbulence model type laminar
    Selecting laminar stress model Stokes
No MRF models present

Courant Number mean: 0 max: 0

PIMPLE: No convergence criteria found


PIMPLE: Operating solver in transient mode with 1 outer corrector
PIMPLE: Operating solver in PISO mode



Starting time loop

Selecting LagrangianModel with name pointInjection of type pointInjection
Selecting LagrangianModel with name gravity of type gravity
Selecting LagrangianModel with name pointInjection of type pointInjection
Selecting LagrangianModel with name gravity of type gravity
Selecting LagrangianModel with name pointInjection of type pointInjection
Selecting LagrangianModel with name gravity of type gravity
Time = 0.01s

ExecutionTime = 0.122246 s  ClockTime = 0 s

Solving cloud linear:
    complete inInternalMesh walls frontAndBack toBeRemoved
           0             10     0            0           0
           0             10     0            0           0
           0             10     0            0           0
          10              0     0            0           0
          10              0     0            0           0

Solving cloud linearSubStepped:
    complete inInternalMesh walls frontAndBack toBeRemoved
           0             10     0            0           0
           0             10     0            0           0
           0             10     0            0           0
           6              4     0            0           0
           6              4     0            0           0
           6              4     0            0           0
           6              4     0            0           0
           7              3     0            0           0
           7              3     0            0           0
          10              0     0            0           0
          10              0     0            0           0

Solving cloud parabolic:
    complete inInternalMesh walls frontAndBack toBeRemoved
           0             10     0            0           0
           0             10     0            0           0
           0             10     0            0           0
          10              0     0            0           0
          10              0     0            0           0

Time = 0.02s

ExecutionTime = 0.130178 s  ClockTime = 0 s

Solving cloud linear:
    complete inInternalMesh walls frontAndBack toBeRemoved
           0             20     0            0           0
          10             10     0            0           0
          10             10     0            0           0
          20              0     0            0           0
          20              0     0            0           0

Solving cloud linearSubStepped:
    complete inInternalMesh walls frontAndBack toBeRemoved
           0             20     0            0           0
           0             20     0            0           0
           0             20     0            0           0
           2             18     0            0           0
           2             18     0            0           0
           5             15     0            0           0
           5             15     0            0           0
          20              0     0            0           0
          20              0     0            0           0

Solving cloud parabolic:
    complete inInternalMesh walls frontAndBack toBeRemoved
           0             20     0            0           0
          10             10     0            0           0
          10             10     0            0           0
          20              0     0            0           0
          20              0     0            0           0

Time = 0.03s

ExecutionTime = 0.135228 s  ClockTime = 0 s

Solving cloud linear:
    complete inInternalMesh walls frontAndBack toBeRemoved
           0             30     0            0           0
          20             10     0            0           0
          20             10     0            0           0
          30              0     0            0           0
          30              0     0            0           0

Solving cloud linearSubStepped:
    complete inInternalMesh walls frontAndBack toBeRemoved
           0             30     0            0           0
           0             30     0            0           0
           0             30     0            0           0
           4             26     0            0           0
           4             26     0            0           0
           8             22     0            0           0
           8             22     0            0           0
          30              0     0            0           0
          30              0     0            0           0

Solving cloud parabolic:
    complete inInternalMesh walls frontAndBack toBeRemoved
           0             30     0            0           0
          20             10     0            0           0
          20             10     0            0           0
          30              0     0            0           0
          30              0     0            0           0

Time = 0.04s

ExecutionTime = 0.140225 s  ClockTime = 0 s

Solving cloud linear:
    complete inInternalMesh walls frontAndBack toBeRemoved
           0             40     0            0           0
          30             10     0            0           0
          30             10     0            0           0
          40              0     0            0           0
          40              0     0            0           0

Solving cloud linearSubStepped:
    complete inInternalMesh walls frontAndBack toBeRemoved
           0             40     0            0           0
           0             40     0            0           0
           0             40     0            0           0
           1             39     0            0           0
           1             39     0            0           0
           3             37     0            0           0
           3             37     0            0           0
          38              2     0            0           0
          38              2     0            0           0
          40              0     0            0           0
          40              0     0            0           0

Solving cloud parabolic:
    complete inInternalMesh walls frontAndBack toBeRemoved
           0             40     0            0           0
          30             10     0            0           0
          30             10     0            0           0
          40              0     0            0           0
          40              0     0            0           0

Time = 0.05s

ExecutionTime = 0.145745 s  ClockTime = 0 s

Solving cloud linear:
    complete inInternalMesh walls frontAndBack toBeRemoved
           0             50     0            0           0
          40             10     0            0           0
          40             10     0            0           0
          50              0     0            0           0
          50              0     0            0           0

Solving cloud linearSubStepped:
    complete inInternalMesh walls frontAndBack toBeRemoved
           0             50     0            0           0
           0             50     0            0           0
           0             50     0            0           0
           4             46     0            0           0
           4             46     0            0           0
           9             41     0            0           0
           9             41     0            0           0
          49              1     0            0           0
          49              1     0            0           0
          50              0     0            0           0
          50              0     0            0           0

Solving cloud parabolic:
    complete inInternalMesh walls frontAndBack toBeRemoved
           0             50     0            0           0
          40             10     0            0           0
          40             10     0            0           0
          50              0     0            0           0
          50              0     0            0           0

Time = 0.06s

ExecutionTime = 0.15133 s  ClockTime = 0 s

Solving cloud linear:
    complete inInternalMesh walls frontAndBack toBeRemoved
           0             60     0            0           0
          50             10     0            0           0
          50             10     0            0           0
          60              0     0            0           0
          60              0     0            0           0

Solving cloud linearSubStepped:
    complete inInternalMesh walls frontAndBack toBeRemoved
           0             60     0            0           0
           0             60     0            0           0
           0             60     0            0           0
           6             54     0            0           0
           6             54     0            0           0
           8             52     0            0           0
           8             52     0            0           0
          60              0     0            0           0
          60              0     0            0           0

Solving cloud parabolic:
    complete inInternalMesh walls frontAndBack toBeRemoved
           0             60     0            0           0
          50             10     0            0           0
          50             10     0            0           0
          60              0     0            0           0
          60              0     0            0           0

Time = 0.07s

ExecutionTime = 0.156459 s  ClockTime = 0 s

Solving cloud linear:
    complete inInternalMesh walls frontAndBack toBeRemoved
           0             70     0            0           0
          60             10     0            0           0
          60             10     0            0           0
          70              0     0            0           0
          70              0     0            0           0

Solving cloud linearSubStepped:
    complete inInternalMesh walls frontAndBack toBeRemoved
           0             70     0            0           0
           0             70     0            0           0
           0             70     0            0           0
           3             67     0            0           0
           3             67     0            0           0
           6             64     0            0           0
           6             64     0            0           0
          70              0     0            0           0
          70              0     0            0           0

Solving cloud parabolic:
    complete inInternalMesh walls frontAndBack toBeRemoved
           0             70     0            0           0
          60             10     0            0           0
          60             10     0            0           0
          70              0     0            0           0
          70              0     0            0           0

Time = 0.08s

ExecutionTime = 0.1617 s  ClockTime = 0 s

Solving cloud linear:
    complete inInternalMesh walls frontAndBack toBeRemoved
           0             80     0            0           0
          70             10     0            0           0
          70             10     0            0           0
          80              0     0            0           0
          80              0     0            0           0

Solving cloud linearSubStepped:
    complete inInternalMesh walls frontAndBack toBeRemoved
           0             80     0            0           0
           0             80     0            0           0
           0             80     0            0           0
           6             74     0            0           0
           6             74     0            0           0
           7             73     0            0           0
           7             73     0            0           0
          79              1     0            0           0
          79              1     0            0           0
          80              0     0            0           0
          80              0     0            0           0

Solving cloud parabolic:
    complete inInternalMesh walls frontAndBack toBeRemoved
           0             80     0            0           0
          70             10     0            0           0
          70             10     0            0           0
          80              0     0            0           0
          80              0     0            0           0

Time = 0.09s

ExecutionTime = 0.167371 s  ClockTime = 0 s

Solving cloud linear:
    complete inInternalMesh walls frontAndBack toBeRemoved
           0             89     0            0           0
          80              9     0            0           0
          80              9     0            0           0
          89              0     0            0           0
          89              0     0            0           0

Solving cloud linearSubStepped:
    complete inInternalMesh walls frontAndBack toBeRemoved
           0             89     0            0           0
           0             89     0            0           0
           0             89     0            0           0
           5             84     0            0           0
           5             84     0            0           0
           8             81     0            0           0
           8             81     0            0           0
          88              1     0            0           0
          88              1     0            0           0
          89              0     0            0           0
          89              0     0            0           0

Solving cloud parabolic:
    complete inInternalMesh walls frontAndBack toBeRemoved
           0             89     0            0           0
          80              9     0            0           0
          80              9     0            0           0
          89              0     0            0           0
          89              0     0            0           0

Time = 0.1s

ExecutionTime = 0.173377 s  ClockTime = 0 s

Solving cloud linear:
    complete inInternalMesh walls frontAndBack toBeRemoved
           0             99     0            0           0
          89             10     0            0           0
          89             10     0            0           0
          99              0     0            0           0
          99              0     0            0           0

Solving cloud linearSubStepped:
    complete inInternalMesh walls frontAndBack toBeRemoved
           0             99     0            0           0
           0             99     0            0           0
           0             99     0            0           0
           2             97     0            0           0
           2             97     0            0           0
           8             91     0            0           0
           8             91     0            0           0
          99              0     0            0           0
          99              0     0            0           0

Solving cloud parabolic:
    complete inInternalMesh walls frontAndBack toBeRemoved
           0             99     0            0           0
          89             10     0            0           0
          89             10     0            0           0
          99              0     0            0           0
          99              0     0            0           0

Time = 0.11s

ExecutionTime = 0.181322 s  ClockTime = 0 s

Solving cloud linear:
    complete inInternalMesh walls frontAndBack toBeRemoved
           0            109     0            0           0
          95             14     0            0           0
          95             14     0            0           0
         109              0     0            0           0
         109              0     0            0           0

Solving cloud linearSubStepped:
    complete inInternalMesh walls frontAndBack toBeRemoved
           0            109     0            0           0
           0            109     0            0           0
           0            109     0            0           0
           3            106     0            0           0
           3            106     0            0           0
           4            105     0            0           0
           4            105     0            0           0
         103              6     0            0           0
         103              6     0            0           0
         109              0     0            0           0
         109              0     0            0           0

Solving cloud parabolic:
    complete inInternalMesh walls frontAndBack toBeRemoved
           0            109     0            0           0
          92             17     0            0           0
          92             17     0            0           0
         109              0     0            0           0
         109              0     0            0           0

Time = 0.12s

ExecutionTime = 0.187347 s  ClockTime = 0 s

Solving cloud linear:
    complete inInternalMesh walls frontAndBack toBeRemoved
           0            119     0            0           0
          98             21     0            0           0
          98             21     0            0           0
         119              0     0            0           0
         119              0     0            0           0

Solving cloud linearSubStepped:
    complete inInternalMesh walls frontAndBack toBeRemoved
           0            119     0            0           0
           0            119     0            0           0
           0            119     0            0           0
           4            115     0            0           0
           4            115     0            0           0
           7            112     0            0           0
           7            112     0            0           0
         114              5     0            0           0
         114              5     0            0           0
         119              0     0            0           0
         119              0     0            0           0

Solving cloud parabolic:
    complete inInternalMesh walls frontAndBack toBeRemoved
           0            119     0            0           0
          96             23     0            0           0
          96             23     0            0           0
         119              0     0            0           0
         119              0     0            0           0

Time = 0.13s

ExecutionTime = 0.193243 s  ClockTime = 0 s

Solving cloud linear:
    complete inInternalMesh walls frontAndBack toBeRemoved
           0            129     0            0           0
         112             17     0            0           0
         112             17     0            0           0
         129              0     0            0           0
         129              0     0            0           0

Solving cloud linearSubStepped:
    complete inInternalMesh walls frontAndBack toBeRemoved
           0            129     0            0           0
           0            129     0            0           0
           0            129     0            0           0
           3            126     0            0           0
           3            126     0            0           0
           7            122     0            0           0
           7            122     0            0           0
         125              4     0            0           0
         125              4     0            0           0
         129              0     0            0           0
         129              0     0            0           0

Solving cloud parabolic:
    complete inInternalMesh walls frontAndBack toBeRemoved
           0            129     0            0           0
         110             19     0            0           0
         110             19     0            0           0
         129              0     0            0           0
         129              0     0            0           0

Time = 0.14s

ExecutionTime = 0.199271 s  ClockTime = 0 s

Solving cloud linear:
    complete inInternalMesh walls frontAndBack toBeRemoved
           0            139     0            0           0
         114             25     0            0           0
         114             25     0            0           0
         139              0     0            0           0
         139              0     0            0           0

Solving cloud linearSubStepped:
    complete inInternalMesh walls frontAndBack toBeRemoved
           0            139     0            0           0
           0            139     0            0           0
           0            139     0            0           0
           2            137     0            0           0
           2            137     0            0           0
           4            135     0            0           0
           4            135     0            0           0
         132              7     0            0           0
         132              7     0            0           0
         139              0     0            0           0
         139              0     0            0           0

Solving cloud parabolic:
    complete inInternalMesh walls frontAndBack toBeRemoved
           0            139     0            0           0
         118             21     0            0           0
         118             21     0            0           0
         139              0     0            0           0
         139              0     0            0           0

Time = 0.15s

ExecutionTime = 0.205274 s  ClockTime = 0 s

Solving cloud linear:
    complete inInternalMesh walls frontAndBack toBeRemoved
           0            149     0            0           0
         131             18     0            0           0
         131             18     0            0           0
         149              0     0            0           0
         149              0     0            0           0

Solving cloud linearSubStepped:
    complete inInternalMesh walls frontAndBack toBeRemoved
           0            149     0            0           0
           0            149     0            0           0
           0            149     0            0           0
           1            148     0            0           0
           1            148     0            0           0
           5            144     0            0           0
           5            144     0            0           0
         144              5     0            0           0
         144              5     0            0           0
         149              0     0            0           0
         149              0     0            0           0

Solving cloud parabolic:
    complete inInternalMesh walls frontAndBack toBeRemoved
           0            149     0            0           0
         127             22     0            0           0
         127             22     0            0           0
         149              0     0            0           0
         149              0     0            0           0

Time = 0.16s

ExecutionTime = 0.211295 s  ClockTime = 0 s

Solving cloud linear:
    complete inInternalMesh walls frontAndBack toBeRemoved
           0            160     0            0           0
         129             31     0            0           0
         129             31     0            0           0
         160              0     0            0           0
         160              0     0            0           0

Solving cloud linearSubStepped:
    complete inInternalMesh walls frontAndBack toBeRemoved
           0            160     0            0           0
           0            160     0            0           0
           0            160     0            0           0
           3            157     0            0           0
           3            157     0            0           0
           5            155     0            0           0
           5            155     0            0           0
         144             16     0            0           0
         144             16     0            0           0
         160              0     0            0           0
         160              0     0            0           0

Solving cloud parabolic:
    complete inInternalMesh walls frontAndBack toBeRemoved
           0            160     0            0           0
         124             36     0            0           0
         124             36     0            0           0
         160              0     0            0           0
         160              0     0            0           0

Time = 0.17s

ExecutionTime = 0.217464 s  ClockTime = 0 s

Solving cloud linear:
    complete inInternalMesh walls frontAndBack toBeRemoved
           0            170     0            0           0
         140             30     0            0           0
         140             30     0            0           0
         170              0     0            0           0
         170              0     0            0           0

Solving cloud linearSubStepped:
    complete inInternalMesh walls frontAndBack toBeRemoved
           0            170     0            0           0
           0            170     0            0           0
           0            170     0            0           0
           2            168     0            0           0
           2            168     0            0           0
           5            165     0            0           0
           5            165     0            0           0
         157             13     0            0           0
         157             13     0            0           0
         170              0     0            0           0
         170              0     0            0           0

Solving cloud parabolic:
    complete inInternalMesh walls frontAndBack toBeRemoved
           0            170     0            0           0
         143             27     0            0           0
         143             27     0            0           0
         170              0     0            0           0
         170              0     0            0           0

Time = 0.18s

ExecutionTime = 0.223848 s  ClockTime = 0 s

Solving cloud linear:
    complete inInternalMesh walls frontAndBack toBeRemoved
           0            180     0            0           0
         149             31     0            0           0
         149             31     0            0           0
         180              0     0            0           0
         180              0     0            0           0

Solving cloud linearSubStepped:
    complete inInternalMesh walls frontAndBack toBeRemoved
           0            180     0            0           0
           0            180     0            0           0
           0            180     0            0           0
           2            178     0            0           0
           2            178     0            0           0
           6            174     0            0           0
           6            174     0            0           0
         171              9     0            0           0
         171              9     0            0           0
         180              0     0            0           0
         180              0     0            0           0

Solving cloud parabolic:
    complete inInternalMesh walls frontAndBack toBeRemoved
           0            180     0            0           0
         144             36     0            0           0
         144             36     0            0           0
         180              0     0            0           0
         180              0     0            0           0

Time = 0.19s

ExecutionTime = 0.231553 s  ClockTime = 0 s

Solving cloud linear:
    complete inInternalMesh walls frontAndBack toBeRemoved
           0            190     0            0           0
         154             36     0            0           0
         154             36     0            0           0
         190              0     0            0           0
         190              0     0            0           0

Solving cloud linearSubStepped:
    complete inInternalMesh walls frontAndBack toBeRemoved
           0            190     0            0           0
           0            190     0            0           0
           0            190     0            0           0
           3            187     0            0           0
           3            187     0            0           0
           8            182     0            0           0
           8            182     0            0           0
         179             11     0            0           0
         179             11     0            0           0
         190              0     0            0           0
         190              0     0            0           0

Solving cloud parabolic:
    complete inInternalMesh walls frontAndBack toBeRemoved
           0            190     0            0           0
         151             39     0            0           0
         151             39     0            0           0
         190              0     0            0           0
         190              0     0            0           0

Time = 0.2s

ExecutionTime = 0.238074 s  ClockTime = 0 s

Solving cloud linear:
    complete inInternalMesh walls frontAndBack toBeRemoved
           0            200     0            0           0
         159             41     0            0           0
         159             41     0            0           0
         200              0     0            0           0
         200              0     0            0           0

Solving cloud linearSubStepped:
    complete inInternalMesh walls frontAndBack toBeRemoved
           0            200     0            0           0
           0            200     0            0           0
           0            200     0            0           0
           1            199     0            0           0
           1            199     0            0           0
           8            192     0            0           0
           8            192     0            0           0
         189             11     0            0           0
         189             11     0            0           0
         200              0     0            0           0
         200              0     0            0           0

Solving cloud parabolic:
    complete inInternalMesh walls frontAndBack toBeRemoved
           0            200     0            0           0
         163             37     0            0           0
         163             37     0            0           0
         200              0     0            0           0
         200              0     0            0           0

Time = 0.21s

ExecutionTime = 0.246971 s  ClockTime = 0 s

Solving cloud linear:
    complete inInternalMesh walls frontAndBack toBeRemoved
           0            210     0            0           0
         161             49     0            0           0
         161             49     0            0           0
         210              0     0            0           0
         210              0     0            0           0

Solving cloud linearSubStepped:
    complete inInternalMesh walls frontAndBack toBeRemoved
           0            210     0            0           0
           0            210     0            0           0
           0            210     0            0           0
           2            208     0            0           0
           2            208     0            0           0
           4            206     0            0           0
           4            206     0            0           0
         195             15     0            0           0
         195             15     0            0           0
         210              0     0            0           0
         210              0     0            0           0

Solving cloud parabolic:
    complete inInternalMesh walls frontAndBack toBeRemoved
           0            210     0            0           0
         155             55     0            0           0
         155             55     0            0           0
         210              0     0            0           0
         210              0     0            0           0

Time = 0.22s

ExecutionTime = 0.253351 s  ClockTime = 0 s

Solving cloud linear:
    complete inInternalMesh walls frontAndBack toBeRemoved
           0            220     0            0           0
         175             45     0            0           0
         175             45     0            0           0
         220              0     0            0           0
         220              0     0            0           0

Solving cloud linearSubStepped:
    complete inInternalMesh walls frontAndBack toBeRemoved
           0            220     0            0           0
           0            220     0            0           0
           0            220     0            0           0
           2            218     0            0           0
           2            218     0            0           0
           4            216     0            0           0
           4            216     0            0           0
         202             18     0            0           0
         202             18     0            0           0
         220              0     0            0           0
         220              0     0            0           0

Solving cloud parabolic:
    complete inInternalMesh walls frontAndBack toBeRemoved
           0            220     0            0           0
         178             42     0            0           0
         178             42     0            0           0
         220              0     0            0           0
         220              0     0            0           0

Time = 0.23s

ExecutionTime = 0.261258 s  ClockTime = 0 s

Solving cloud linear:
    complete inInternalMesh walls frontAndBack toBeRemoved
           0            230     0            0           0
         183             47     0            0           0
         183             47     0            0           0
         230              0     0            0           0
         230              0     0            0           0

Solving cloud linearSubStepped:
    complete inInternalMesh walls frontAndBack toBeRemoved
           0            230     0            0           0
           0            230     0            0           0
           0            230     0            0           0
           1            229     0            0           0
           1            229     0            0           0
           6            224     0            0           0
           6            224     0            0           0
         212             18     0            0           0
         212             18     0            0           0
         230              0     0            0           0
         230              0     0            0           0

Solving cloud parabolic:
    complete inInternalMesh walls frontAndBack toBeRemoved
           0            230     0            0           0
         176             54     0            0           0
         176             54     0            0           0
         230              0     0            0           0
         230              0     0            0           0

Time = 0.24s

ExecutionTime = 0.268027 s  ClockTime = 0 s

Solving cloud linear:
    complete inInternalMesh walls frontAndBack toBeRemoved
           0            240     0            0           0
         173             67     0            0           0
         173             67     0            0           0
         240              0     0            0           0
         240              0     0            0           0

Solving cloud linearSubStepped:
    complete inInternalMesh walls frontAndBack toBeRemoved
           0            240     0            0           0
           0            240     0            0           0
           0            240     0            0           0
           4            236     0            0           0
           4            236     0            0           0
           4            236     0            0           0
           4            236     0            0           0
         211             29     0            0           0
         211             29     0            0           0
         240              0     0            0           0
         240              0     0            0           0

Solving cloud parabolic:
    complete inInternalMesh walls frontAndBack toBeRemoved
           0            240     0            0           0
         173             67     0            0           0
         173             67     0            0           0
         240              0     0            0           0
         240              0     0            0           0

Time = 0.25s

ExecutionTime = 0.274724 s  ClockTime = 0 s

Solving cloud linear:
    complete inInternalMesh walls frontAndBack toBeRemoved
           0            250     0            0           0
         194             56     0            0           0
         194             56     0            0           0
         250              0     0            0           0
         250              0     0            0           0

Solving cloud linearSubStepped:
    complete inInternalMesh walls frontAndBack toBeRemoved
           0            250     0            0           0
           0            250     0            0           0
           0            250     0            0           0
           1            249     0            0           0
           1            249     0            0           0
           2            248     0            0           0
           2            248     0            0           0
         228             22     0            0           0
         228             22     0            0           0
         250              0     0            0           0
         250              0     0            0           0

Solving cloud parabolic:
    complete inInternalMesh walls frontAndBack toBeRemoved
           0            250     0            0           0
         194             56     0            0           0
         194             56     0            0           0
         250              0     0            0           0
         250              0     0            0           0

Time = 0.26s

ExecutionTime = 0.281441 s  ClockTime = 0 s

Solving cloud linear:
    complete inInternalMesh walls frontAndBack toBeRemoved
           0            260     0            0           0
         189             71     0            0           0
         189             71     0            0           0
         253              7     0            0           0
         253              7     0            0           0
         260              0     0            0           0
         260              0     0            0           0

Solving cloud linearSubStepped:
    complete inInternalMesh walls frontAndBack toBeRemoved
           0            260     0            0           0
           0            260     0            0           0
           0            260     0            0           0
           4            256     0            0           0
           4            256     0            0           0
           5            255     0            0           0
           5            255     0            0           0
         230             30     0            0           0
         230             30     0            0           0
         260              0     0            0           0
         260              0     0            0           0

Solving cloud parabolic:
    complete inInternalMesh walls frontAndBack toBeRemoved
           0            260     0            0           0
         183             77     0            0           0
         183             77     0            0           0
         254              6     0            0           0
         254              6     0            0           0
         260              0     0            0           0
         260              0     0            0           0

Time = 0.27s

ExecutionTime = 0.289309 s  ClockTime = 0 s

Solving cloud linear:
    complete inInternalMesh walls frontAndBack toBeRemoved
           0            270     0            0           0
         200             70     0            0           0
         200             70     0            0           0
         261              9     0            0           0
         261              9     0            0           0
         270              0     0            0           0
         270              0     0            0           0

Solving cloud linearSubStepped:
    complete inInternalMesh walls frontAndBack toBeRemoved
           0            270     0            0           0
           0            270     0            0           0
           0            270     0            0           0
           2            268     0            0           0
           2            268     0            0           0
           6            264     0            0           0
           6            264     0            0           0
         241             29     0            0           0
         241             29     0            0           0
         270              0     0            0           0
         270              0     0            0           0

Solving cloud parabolic:
    complete inInternalMesh walls frontAndBack toBeRemoved
           0            270     0            0           0
         197             73     0            0           0
         197             73     0            0           0
         263              7     0            0           0
         263              7     0            0           0
         270              0     0            0           0
         270              0     0            0           0

Time = 0.28s

ExecutionTime = 0.297155 s  ClockTime = 0 s

Solving cloud linear:
    complete inInternalMesh walls frontAndBack toBeRemoved
           0            280     0            0           0
         201             79     0            0           0
         201             79     0            0           0
         273              7     0            0           0
         273              7     0            0           0
         280              0     0            0           0
         280              0     0            0           0

Solving cloud linearSubStepped:
    complete inInternalMesh walls frontAndBack toBeRemoved
           0            280     0            0           0
           0            280     0            0           0
           0            280     0            0           0
           2            278     0            0           0
           2            278     0            0           0
           7            273     0            0           0
           7            273     0            0           0
         247             33     0            0           0
         247             33     0            0           0
         280              0     0            0           0
         280              0     0            0           0

Solving cloud parabolic:
    complete inInternalMesh walls frontAndBack toBeRemoved
           0            280     0            0           0
         194             86     0            0           0
         194             86     0            0           0
         271              9     0            0           0
         271              9     0            0           0
         280              0     0            0           0
         280              0     0            0           0

Time = 0.29s

ExecutionTime = 0.305084 s  ClockTime = 0 s

Solving cloud linear:
    complete inInternalMesh walls frontAndBack toBeRemoved
           0            290     0            0           0
         207             83     0            0           0
         207             83     0            0           0
         281              9     0            0           0
         281              9     0            0           0
         290              0     0            0           0
         290              0     0            0           0

Solving cloud linearSubStepped:
    complete inInternalMesh walls frontAndBack toBeRemoved
           0            290     0            0           0
           0            290     0            0           0
           0            290     0            0           0
           2            288     0            0           0
           2            288     0            0           0
           6            281     3            0           0
           6            284     0            0           0
         254             35     1            0           0
         254             36     0            0           0
         290              0     0            0           0
         290              0     0            0           0

Solving cloud parabolic:
    complete inInternalMesh walls frontAndBack toBeRemoved
           0            290     0            0           0
         208             78     4            0           0
         208             82     0            0           0
         285              5     0            0           0
         285              5     0            0           0
         290              0     0            0           0
         290              0     0            0           0

Time = 0.3s

ExecutionTime = 0.313276 s  ClockTime = 0 s

Solving cloud linear:
    complete inInternalMesh walls frontAndBack toBeRemoved
           0            300     0            0           0
         211             79    10            0           0
         211             89     0            0           0
         294              6     0            0           0
         294              6     0            0           0
         300              0     0            0           0
         300              0     0            0           0

Solving cloud linearSubStepped:
    complete inInternalMesh walls frontAndBack toBeRemoved
           0            300     0            0           0
           0            300     0            0           0
           0            300     0            0           0
           3            294     3            0           0
           3            297     0            0           0
           5            290     5            0           0
           5            295     0            0           0
         263             35     2            0           0
         263             37     0            0           0
         300              0     0            0           0
         300              0     0            0           0

Solving cloud parabolic:
    complete inInternalMesh walls frontAndBack toBeRemoved
           0            300     0            0           0
         201             88    11            0           0
         201             99     0            0           0
         291              9     0            0           0
         291              9     0            0           0
         300              0     0            0           0
         300              0     0            0           0

Time = 0.31s

ExecutionTime = 0.32403 s  ClockTime = 0 s

Solving cloud linear:
    complete inInternalMesh walls frontAndBack toBeRemoved
           0            310     0            0           0
         206             94    10            0           0
         206            104     0            0           0
         304              6     0            0           0
         304              6     0            0           0
         310              0     0            0           0
         310              0     0            0           0

Solving cloud linearSubStepped:
    complete inInternalMesh walls frontAndBack toBeRemoved
           0            310     0            0           0
           0            308     2            0           0
           0            310     0            0           0
           4            302     4            0           0
           4            306     0            0           0
           8            301     1            0           0
           8            302     0            0           0
         270             40     0            0           0
         270             40     0            0           0
         310              0     0            0           0
         310              0     0            0           0

Solving cloud parabolic:
    complete inInternalMesh walls frontAndBack toBeRemoved
           0            310     0            0           0
         221             82     7            0           0
         221             89     0            0           0
         302              8     0            0           0
         302              8     0            0           0
         310              0     0            0           0
         310              0     0            0           0

Time = 0.32s

ExecutionTime = 0.332188 s  ClockTime = 0 s

Solving cloud linear:
    complete inInternalMesh walls frontAndBack toBeRemoved
           0            320     0            0           0
         221             89    10            0           0
         221             99     0            0           0
         313              7     0            0           0
         313              7     0            0           0
         320              0     0            0           0
         320              0     0            0           0

Solving cloud linearSubStepped:
    complete inInternalMesh walls frontAndBack toBeRemoved
           0            320     0            0           0
           0            316     4            0           0
           0            320     0            0           0
           1            315     4            0           0
           1            319     0            0           0
           4            312     4            0           0
           4            316     0            0           0
         283             34     3            0           0
         283             37     0            0           0
         320              0     0            0           0
         320              0     0            0           0

Solving cloud parabolic:
    complete inInternalMesh walls frontAndBack toBeRemoved
           0            320     0            0           0
         212             93    15            0           0
         212            108     0            0           0
         311              9     0            0           0
         311              9     0            0           0
         320              0     0            0           0
         320              0     0            0           0

Time = 0.33s

ExecutionTime = 0.340414 s  ClockTime = 0 s

Solving cloud linear:
    complete inInternalMesh walls frontAndBack toBeRemoved
           0            330     0            0           0
         227             93    10            0           0
         227            103     0            0           0
         325              5     0            0           0
         325              5     0            0           0
         330              0     0            0           0
         330              0     0            0           0

Solving cloud linearSubStepped:
    complete inInternalMesh walls frontAndBack toBeRemoved
           0            330     0            0           0
           0            328     2            0           0
           0            330     0            0           0
           3            325     2            0           0
           3            327     0            0           0
           6            323     1            0           0
           6            324     0            0           0
         289             41     0            0           0
         289             41     0            0           0
         330              0     0            0           0
         330              0     0            0           0

Solving cloud parabolic:
    complete inInternalMesh walls frontAndBack toBeRemoved
           0            330     0            0           0
         227             99     4            0           0
         227            103     0            0           0
         322              8     0            0           0
         322              8     0            0           0
         330              0     0            0           0
         330              0     0            0           0

Time = 0.34s

ExecutionTime = 0.348891 s  ClockTime = 0 s

Solving cloud linear:
    complete inInternalMesh walls frontAndBack toBeRemoved
           0            340     0            0           0
         218            112    10            0           0
         218            122     0            0           0
         333              7     0            0           0
         333              7     0            0           0
         340              0     0            0           0
         340              0     0            0           0

Solving cloud linearSubStepped:
    complete inInternalMesh walls frontAndBack toBeRemoved
           0            340     0            0           0
           0            337     3            0           0
           0            340     0            0           0
           2            334     4            0           0
           2            338     0            0           0
           7            329     4            0           0
           7            333     0            0           0
         294             46     0            0           0
         294             46     0            0           0
         340              0     0            0           0
         340              0     0            0           0

Solving cloud parabolic:
    complete inInternalMesh walls frontAndBack toBeRemoved
           0            340     0            0           0
         224            105    11            0           0
         224            116     0            0           0
         332              8     0            0           0
         332              8     0            0           0
         340              0     0            0           0
         340              0     0            0           0

Time = 0.35s

ExecutionTime = 0.357234 s  ClockTime = 0 s

Solving cloud linear:
    complete inInternalMesh walls frontAndBack toBeRemoved
           0            350     0            0           0
         238            102    10            0           0
         238            112     0            0           0
         342              8     0            0           0
         342              8     0            0           0
         350              0     0            0           0
         350              0     0            0           0

Solving cloud linearSubStepped:
    complete inInternalMesh walls frontAndBack toBeRemoved
           0            350     0            0           0
           0            348     2            0           0
           0            350     0            0           0
           5            340     5            0           0
           5            345     0            0           0
           7            341     2            0           0
           7            343     0            0           0
         306             44     0            0           0
         306             44     0            0           0
         350              0     0            0           0
         350              0     0            0           0

Solving cloud parabolic:
    complete inInternalMesh walls frontAndBack toBeRemoved
           0            350     0            0           0
         240             98    12            0           0
         240            110     0            0           0
         342              8     0            0           0
         342              8     0            0           0
         350              0     0            0           0
         350              0     0            0           0

Time = 0.36s

ExecutionTime = 0.365767 s  ClockTime = 0 s

Solving cloud linear:
    complete inInternalMesh walls frontAndBack toBeRemoved
           0            360     0            0           0
         238            113     9            0           0
         238            122     0            0           0
         350             10     0            0           0
         350             10     0            0           0
         360              0     0            0           0
         360              0     0            0           0

Solving cloud linearSubStepped:
    complete inInternalMesh walls frontAndBack toBeRemoved
           0            360     0            0           0
           0            356     4            0           0
           0            360     0            0           0
           6            351     3            0           0
           6            354     0            0           0
           7            350     3            0           0
           7            353     0            0           0
         303             56     1            0           0
         303             57     0            0           0
         360              0     0            0           0
         360              0     0            0           0

Solving cloud parabolic:
    complete inInternalMesh walls frontAndBack toBeRemoved
           0            360     0            0           0
         230            121     9            0           0
         230            130     0            0           0
         353              7     0            0           0
         353              7     0            0           0
         360              0     0            0           0
         360              0     0            0           0

Time = 0.37s

ExecutionTime = 0.374283 s  ClockTime = 0 s

Solving cloud linear:
    complete inInternalMesh walls frontAndBack toBeRemoved
           0            370     0            0           0
         256            106     8            0           0
         256            114     0            0           0
         363              7     0            0           0
         363              7     0            0           0
         370              0     0            0           0
         370              0     0            0           0

Solving cloud linearSubStepped:
    complete inInternalMesh walls frontAndBack toBeRemoved
           0            370     0            0           0
           0            369     1            0           0
           0            370     0            0           0
           4            363     3            0           0
           4            366     0            0           0
           7            358     5            0           0
           7            363     0            0           0
         314             56     0            0           0
         314             56     0            0           0
         370              0     0            0           0
         370              0     0            0           0

Solving cloud parabolic:
    complete inInternalMesh walls frontAndBack toBeRemoved
           0            370     0            0           0
         254            108     8            0           0
         254            116     0            0           0
         363              7     0            0           0
         363              7     0            0           0
         370              0     0            0           0
         370              0     0            0           0

Time = 0.38s

ExecutionTime = 0.382687 s  ClockTime = 0 s

Solving cloud linear:
    complete inInternalMesh walls frontAndBack toBeRemoved
           0            380     0            0           0
         242            126    12            0           0
         242            138     0            0           0
         371              9     0            0           0
         371              9     0            0           0
         380              0     0            0           0
         380              0     0            0           0

Solving cloud linearSubStepped:
    complete inInternalMesh walls frontAndBack toBeRemoved
           0            380     0            0           0
           0            377     3            0           0
           0            380     0            0           0
           4            373     3            0           0
           4            376     0            0           0
           8            368     4            0           0
           8            372     0            0           0
         325             55     0            0           0
         325             55     0            0           0
         380              0     0            0           0
         380              0     0            0           0

Solving cloud parabolic:
    complete inInternalMesh walls frontAndBack toBeRemoved
           0            380     0            0           0
         245            125    10            0           0
         245            135     0            0           0
         371              9     0            0           0
         371              9     0            0           0
         380              0     0            0           0
         380              0     0            0           0

Time = 0.39s

ExecutionTime = 0.391226 s  ClockTime = 0 s

Solving cloud linear:
    complete inInternalMesh walls frontAndBack toBeRemoved
           0            390     0            0           0
         264            117     9            0           0
         264            126     0            0           0
         382              8     0            0           0
         382              8     0            0           0
         390              0     0            0           0
         390              0     0            0           0

Solving cloud linearSubStepped:
    complete inInternalMesh walls frontAndBack toBeRemoved
           0            390     0            0           0
           0            386     4            0           0
           0            390     0            0           0
           4            383     3            0           0
           4            386     0            0           0
           6            380     4            0           0
           6            384     0            0           0
         334             54     2            0           0
         334             56     0            0           0
         390              0     0            0           0
         390              0     0            0           0

Solving cloud parabolic:
    complete inInternalMesh walls frontAndBack toBeRemoved
           0            390     0            0           0
         258            118    14            0           0
         258            132     0            0           0
         382              8     0            0           0
         382              8     0            0           0
         390              0     0            0           0
         390              0     0            0           0

Time = 0.4s

ExecutionTime = 0.400166 s  ClockTime = 0 s

Solving cloud linear:
    complete inInternalMesh walls frontAndBack toBeRemoved
           0            400     0            0           0
         260            129    11            0           0
         260            140     0            0           0
         391              9     0            0           0
         391              9     0            0           0
         400              0     0            0           0
         400              0     0            0           0

Solving cloud linearSubStepped:
    complete inInternalMesh walls frontAndBack toBeRemoved
           0            400     0            0           0
           0            398     2            0           0
           0            400     0            0           0
           2            395     3            0           0
           2            398     0            0           0
           6            392     2            0           0
           6            394     0            0           0
         343             56     1            0           0
         343             57     0            0           0
         400              0     0            0           0
         400              0     0            0           0

Solving cloud parabolic:
    complete inInternalMesh walls frontAndBack toBeRemoved
           0            400     0            0           0
         262            131     7            0           0
         262            138     0            0           0
         394              6     0            0           0
         394              6     0            0           0
         400              0     0            0           0
         400              0     0            0           0

Time = 0.41s

ExecutionTime = 0.411933 s  ClockTime = 0 s

Solving cloud linear:
    complete inInternalMesh walls frontAndBack toBeRemoved
           0            410     0            0           0
         270            130    10            0           0
         270            140     0            0           0
         401              9     0            0           0
         401              9     0            0           0
         410              0     0            0           0
         410              0     0            0           0

Solving cloud linearSubStepped:
    complete inInternalMesh walls frontAndBack toBeRemoved
           0            410     0            0           0
           0            407     3            0           0
           0            410     0            0           0
           2            406     2            0           0
           2            408     0            0           0
           3            404     3            0           0
           3            407     0            0           0
         350             60     0            0           0
         350             60     0            0           0
         410              0     0            0           0
         410              0     0            0           0

Solving cloud parabolic:
    complete inInternalMesh walls frontAndBack toBeRemoved
           0            410     0            0           0
         264            136    10            0           0
         264            146     0            0           0
         403              7     0            0           0
         403              7     0            0           0
         410              0     0            0           0
         410              0     0            0           0

Time = 0.42s

ExecutionTime = 0.42069 s  ClockTime = 0 s

Solving cloud linear:
    complete inInternalMesh walls frontAndBack toBeRemoved
           0            420     0            0           0
         277            133    10            0           0
         277            143     0            0           0
         412              8     0            0           0
         412              8     0            0           0
         420              0     0            0           0
         420              0     0            0           0

Solving cloud linearSubStepped:
    complete inInternalMesh walls frontAndBack toBeRemoved
           0            420     0            0           0
           0            414     6            0           0
           0            420     0            0           0
           0            418     2            0           0
           0            420     0            0           0
           6            411     3            0           0
           6            414     0            0           0
         352             66     2            0           0
         352             68     0            0           0
         420              0     0            0           0
         420              0     0            0           0

Solving cloud parabolic:
    complete inInternalMesh walls frontAndBack toBeRemoved
           0            420     0            0           0
         276            131    13            0           0
         276            144     0            0           0
         413              7     0            0           0
         413              7     0            0           0
         420              0     0            0           0
         420              0     0            0           0

Time = 0.43s

ExecutionTime = 0.429544 s  ClockTime = 0 s

Solving cloud linear:
    complete inInternalMesh walls frontAndBack toBeRemoved
           0            430     0            0           0
         281            140     9            0           0
         281            149     0            0           0
         421              9     0            0           0
         421              9     0            0           0
         430              0     0            0           0
         430              0     0            0           0

Solving cloud linearSubStepped:
    complete inInternalMesh walls frontAndBack toBeRemoved
           0            430     0            0           0
           0            427     3            0           0
           0            430     0            0           0
           2            426     2            0           0
           2            428     0            0           0
           7            419     4            0           0
           7            423     0            0           0
         360             69     1            0           0
         360             70     0            0           0
         430              0     0            0           0
         430              0     0            0           0

Solving cloud parabolic:
    complete inInternalMesh walls frontAndBack toBeRemoved
           0            430     0            0           0
         281            140     9            0           0
         281            149     0            0           0
         422              8     0            0           0
         422              8     0            0           0
         430              0     0            0           0
         430              0     0            0           0

Time = 0.44s

ExecutionTime = 0.438488 s  ClockTime = 0 s

Solving cloud linear:
    complete inInternalMesh walls frontAndBack toBeRemoved
           0            440     0            0           0
         291            138    11            0           0
         291            149     0            0           0
         433              7     0            0           0
         433              7     0            0           0
         440              0     0            0           0
         440              0     0            0           0

Solving cloud linearSubStepped:
    complete inInternalMesh walls frontAndBack toBeRemoved
           0            440     0            0           0
           0            436     4            0           0
           0            440     0            0           0
           2            436     2            0           0
           2            438     0            0           0
           6            431     3            0           0
           6            434     0            0           0
         384             55     1            0           0
         384             56     0            0           0
         440              0     0            0           0
         440              0     0            0           0

Solving cloud parabolic:
    complete inInternalMesh walls frontAndBack toBeRemoved
           0            440     0            0           0
         300            129    11            0           0
         300            140     0            0           0
         431              9     0            0           0
         431              9     0            0           0
         440              0     0            0           0
         440              0     0            0           0

Time = 0.45s

ExecutionTime = 0.447453 s  ClockTime = 0 s

Solving cloud linear:
    complete inInternalMesh walls frontAndBack toBeRemoved
           0            450     0            0           0
         301            138    11            0           0
         301            149     0            0           0
         441              9     0            0           0
         441              9     0            0           0
         450              0     0            0           0
         450              0     0            0           0

Solving cloud linearSubStepped:
    complete inInternalMesh walls frontAndBack toBeRemoved
           0            450     0            0           0
           0            446     4            0           0
           0            450     0            0           0
           3            444     3            0           0
           3            447     0            0           0
           7            441     2            0           0
           7            443     0            0           0
         391             57     2            0           0
         391             59     0            0           0
         450              0     0            0           0
         450              0     0            0           0

Solving cloud parabolic:
    complete inInternalMesh walls frontAndBack toBeRemoved
           0            450     0            0           0
         294            146    10            0           0
         294            156     0            0           0
         442              8     0            0           0
         442              8     0            0           0
         450              0     0            0           0
         450              0     0            0           0

Time = 0.46s

ExecutionTime = 0.456489 s  ClockTime = 0 s

Solving cloud linear:
    complete inInternalMesh walls frontAndBack toBeRemoved
           0            460     0            0           0
         304            146    10            0           0
         304            156     0            0           0
         451              9     0            0           0
         451              9     0            0           0
         460              0     0            0           0
         460              0     0            0           0

Solving cloud linearSubStepped:
    complete inInternalMesh walls frontAndBack toBeRemoved
           0            460     0            0           0
           0            456     4            0           0
           0            460     0            0           0
           3            455     2            0           0
           3            457     0            0           0
           6            453     1            0           0
           6            454     0            0           0
         410             49     1            0           0
         410             50     0            0           0
         460              0     0            0           0
         460              0     0            0           0

Solving cloud parabolic:
    complete inInternalMesh walls frontAndBack toBeRemoved
           0            460     0            0           0
         302            149     9            0           0
         302            158     0            0           0
         453              7     0            0           0
         453              7     0            0           0
         460              0     0            0           0
         460              0     0            0           0

Time = 0.47s

ExecutionTime = 0.465534 s  ClockTime = 0 s

Solving cloud linear:
    complete inInternalMesh walls frontAndBack toBeRemoved
           0            470     0            0           0
         313            147    10            0           0
         313            157     0            0           0
         461              9     0            0           0
         461              9     0            0           0
         470              0     0            0           0
         470              0     0            0           0

Solving cloud linearSubStepped:
    complete inInternalMesh walls frontAndBack toBeRemoved
           0            470     0            0           0
           0            467     3            0           0
           0            470     0            0           0
           2            464     4            0           0
           2            468     0            0           0
           5            463     2            0           0
           5            465     0            0           0
         393             77     0            0           0
         393             77     0            0           0
         470              0     0            0           0
         470              0     0            0           0

Solving cloud parabolic:
    complete inInternalMesh walls frontAndBack toBeRemoved
           0            470     0            0           0
         310            150    10            0           0
         310            160     0            0           0
         463              7     0            0           0
         463              7     0            0           0
         470              0     0            0           0
         470              0     0            0           0

Time = 0.48s

ExecutionTime = 0.474685 s  ClockTime = 0 s

Solving cloud linear:
    complete inInternalMesh walls frontAndBack toBeRemoved
           0            480     0            0           0
         323            147    10            0           0
         323            157     0            0           0
         471              9     0            0           0
         471              9     0            0           0
[...]
         995              5     0            0           0
        1000              0     0            0           0
        1000              0     0            0           0

Time = 4.91s

ExecutionTime = 6.03934 s  ClockTime = 6 s

Solving cloud linear:
    complete inInternalMesh walls frontAndBack toBeRemoved
           0           1000     0            0           0
         509            442    49            0           0
         509            491     0            0           0
         972             22     6            0           0
         972             28     0            0           0
        1000              0     0            0           0
        1000              0     0            0           0

Solving cloud linearSubStepped:
    complete inInternalMesh walls frontAndBack toBeRemoved
           0           1000     0            0           0
           0            994     6            0           0
           0           1000     0            0           0
           0            991     9            0           0
           0           1000     0            0           0
           0            995     5            0           0
           0           1000     0            0           0
         875            124     1            0           0
         875            125     0            0           0
         998              2     0            0           0
         998              2     0            0           0
        1000              0     0            0           0
        1000              0     0            0           0

Solving cloud parabolic:
    complete inInternalMesh walls frontAndBack toBeRemoved
           0           1000     0            0           0
         707            268    25            0           0
         707            293     0            0           0
         973             20     7            0           0
         973             27     0            0           0
         997              3     0            0           0
         997              3     0            0           0
        1000              0     0            0           0
        1000              0     0            0           0

Time = 4.92s

ExecutionTime = 6.05273 s  ClockTime = 6 s

Solving cloud linear:
    complete inInternalMesh walls frontAndBack toBeRemoved
           0           1000     0            0           0
         515            442    43            0           0
         515            485     0            0           0
         978             17     5            0           0
         978             22     0            0           0
        1000              0     0            0           0
        1000              0     0            0           0

Solving cloud linearSubStepped:
    complete inInternalMesh walls frontAndBack toBeRemoved
           0           1000     0            0           0
           0            994     6            0           0
           0           1000     0            0           0
           0            993     7            0           0
           0           1000     0            0           0
           0            994     6            0           0
           0           1000     0            0           0
         868            131     1            0           0
         868            132     0            0           0
        1000              0     0            0           0
        1000              0     0            0           0

Solving cloud parabolic:
    complete inInternalMesh walls frontAndBack toBeRemoved
           0           1000     0            0           0
         728            248    24            0           0
         728            272     0            0           0
         976             18     6            0           0
         976             24     0            0           0
         996              4     0            0           0
         996              4     0            0           0
        1000              0     0            0           0
        1000              0     0            0           0

Time = 4.93s

ExecutionTime = 6.06555 s  ClockTime = 6 s

Solving cloud linear:
    complete inInternalMesh walls frontAndBack toBeRemoved
           0           1000     0            0           0
         529            425    46            0           0
         529            471     0            0           0
         978             20     2            0           0
         978             22     0            0           0
        1000              0     0            0           0
        1000              0     0            0           0

Solving cloud linearSubStepped:
    complete inInternalMesh walls frontAndBack toBeRemoved
           0           1000     0            0           0
           0            994     6            0           0
           0           1000     0            0           0
           0            995     5            0           0
           0           1000     0            0           0
           0            994     6            0           0
           0           1000     0            0           0
         867            132     1            0           0
         867            133     0            0           0
         997              3     0            0           0
         997              3     0            0           0
        1000              0     0            0           0
        1000              0     0            0           0

Solving cloud parabolic:
    complete inInternalMesh walls frontAndBack toBeRemoved
           0           1000     0            0           0
         695            282    23            0           0
         695            305     0            0           0
         976             17     7            0           0
         976             24     0            0           0
         998              2     0            0           0
         998              2     0            0           0
        1000              0     0            0           0
        1000              0     0            0           0

Time = 4.94s

ExecutionTime = 6.0788 s  ClockTime = 6 s

Solving cloud linear:
    complete inInternalMesh walls frontAndBack toBeRemoved
           0           1000     0            0           0
         494            461    45            0           0
         494            506     0            0           0
         976             18     6            0           0
         976             24     0            0           0
        1000              0     0            0           0
        1000              0     0            0           0

Solving cloud linearSubStepped:
    complete inInternalMesh walls frontAndBack toBeRemoved
           0           1000     0            0           0
           0            994     6            0           0
           0           1000     0            0           0
           0            992     8            0           0
           0           1000     0            0           0
           0            995     5            0           0
           0           1000     0            0           0
         887            110     3            0           0
         887            113     0            0           0
         999              1     0            0           0
         999              1     0            0           0
        1000              0     0            0           0
        1000              0     0            0           0

Solving cloud parabolic:
    complete inInternalMesh walls frontAndBack toBeRemoved
           0           1000     0            0           0
         710            269    21            0           0
         710            290     0            0           0
         967             24     9            0           0
         967             33     0            0           0
         995              5     0            0           0
         995              5     0            0           0
        1000              0     0            0           0
        1000              0     0            0           0

Time = 4.95s

ExecutionTime = 6.09214 s  ClockTime = 6 s

Solving cloud linear:
    complete inInternalMesh walls frontAndBack toBeRemoved
           0           1000     0            0           0
         510            441    49            0           0
         510            490     0            0           0
         981             17     2            0           0
         981             19     0            0           0
        1000              0     0            0           0
        1000              0     0            0           0

Solving cloud linearSubStepped:
    complete inInternalMesh walls frontAndBack toBeRemoved
           0           1000     0            0           0
           0            996     4            0           0
           0           1000     0            0           0
           0            993     7            0           0
           0           1000     0            0           0
           0            997     3            0           0
           0           1000     0            0           0
         861            138     1            0           0
         861            139     0            0           0
        1000              0     0            0           0
        1000              0     0            0           0

Solving cloud parabolic:
    complete inInternalMesh walls frontAndBack toBeRemoved
           0           1000     0            0           0
         705            271    24            0           0
         705            295     0            0           0
         970             22     8            0           0
         970             30     0            0           0
         991              9     0            0           0
         991              9     0            0           0
        1000              0     0            0           0
        1000              0     0            0           0

Time = 4.96s

ExecutionTime = 6.1051 s  ClockTime = 6 s

Solving cloud linear:
    complete inInternalMesh walls frontAndBack toBeRemoved
           0           1000     0            0           0
         495            449    56            0           0
         495            505     0            0           0
         985             13     2            0           0
         985             15     0            0           0
        1000              0     0            0           0
        1000              0     0            0           0

Solving cloud linearSubStepped:
    complete inInternalMesh walls frontAndBack toBeRemoved
           0           1000     0            0           0
           0            987    13            0           0
           0           1000     0            0           0
           0            997     3            0           0
           0           1000     0            0           0
           0            995     5            0           0
           0           1000     0            0           0
         889            109     2            0           0
         889            111     0            0           0
        1000              0     0            0           0
        1000              0     0            0           0

Solving cloud parabolic:
    complete inInternalMesh walls frontAndBack toBeRemoved
           0           1000     0            0           0
         696            278    26            0           0
         696            304     0            0           0
         975             21     4            0           0
         975             25     0            0           0
         993              7     0            0           0
         993              7     0            0           0
        1000              0     0            0           0
        1000              0     0            0           0

Time = 4.97s

ExecutionTime = 6.11799 s  ClockTime = 6 s

Solving cloud linear:
    complete inInternalMesh walls frontAndBack toBeRemoved
           0           1000     0            0           0
         481            462    57            0           0
         481            519     0            0           0
         980             17     3            0           0
         980             20     0            0           0
        1000              0     0            0           0
        1000              0     0            0           0

Solving cloud linearSubStepped:
    complete inInternalMesh walls frontAndBack toBeRemoved
           0           1000     0            0           0
           0            993     7            0           0
           0           1000     0            0           0
           0            992     8            0           0
           0           1000     0            0           0
           0            998     2            0           0
           0           1000     0            0           0
         882            117     1            0           0
         882            118     0            0           0
        1000              0     0            0           0
        1000              0     0            0           0

Solving cloud parabolic:
    complete inInternalMesh walls frontAndBack toBeRemoved
           0           1000     0            0           0
         694            281    25            0           0
         694            306     0            0           0
         977             17     6            0           0
         977             23     0            0           0
         996              4     0            0           0
         996              4     0            0           0
        1000              0     0            0           0
        1000              0     0            0           0

Time = 4.98s

ExecutionTime = 6.13094 s  ClockTime = 6 s

Solving cloud linear:
    complete inInternalMesh walls frontAndBack toBeRemoved
           0           1000     0            0           0
         520            422    58            0           0
         520            480     0            0           0
         979             18     3            0           0
         979             21     0            0           0
        1000              0     0            0           0
        1000              0     0            0           0

Solving cloud linearSubStepped:
    complete inInternalMesh walls frontAndBack toBeRemoved
           0           1000     0            0           0
           0            990    10            0           0
           0           1000     0            0           0
           0            992     8            0           0
           0           1000     0            0           0
           0            994     6            0           0
           0           1000     0            0           0
         891            108     1            0           0
         891            109     0            0           0
         999              1     0            0           0
         999              1     0            0           0
        1000              0     0            0           0
        1000              0     0            0           0

Solving cloud parabolic:
    complete inInternalMesh walls frontAndBack toBeRemoved
           0           1000     0            0           0
         696            285    19            0           0
         696            304     0            0           0
         973             21     6            0           0
         973             27     0            0           0
         994              6     0            0           0
         994              6     0            0           0
        1000              0     0            0           0
        1000              0     0            0           0

Time = 4.99s

ExecutionTime = 6.14433 s  ClockTime = 6 s

Solving cloud linear:
    complete inInternalMesh walls frontAndBack toBeRemoved
           0           1000     0            0           0
         478            461    61            0           0
         478            522     0            0           0
         980             19     1            0           0
         980             20     0            0           0
        1000              0     0            0           0
        1000              0     0            0           0

Solving cloud linearSubStepped:
    complete inInternalMesh walls frontAndBack toBeRemoved
           0           1000     0            0           0
           0            993     7            0           0
           0           1000     0            0           0
           0            996     4            0           0
           0           1000     0            0           0
           0            994     6            0           0
           0           1000     0            0           0
         863            135     2            0           0
         863            137     0            0           0
         998              2     0            0           0
         998              2     0            0           0
        1000              0     0            0           0
        1000              0     0            0           0

Solving cloud parabolic:
    complete inInternalMesh walls frontAndBack toBeRemoved
           0           1000     0            0           0
         677            292    31            0           0
         677            323     0            0           0
         975             21     4            0           0
         975             25     0            0           0
         994              6     0            0           0
         994              6     0            0           0
        1000              0     0            0           0
        1000              0     0            0           0

Time = 5s

ExecutionTime = 6.15828 s  ClockTime = 6 s

Solving cloud linear:
    complete inInternalMesh walls frontAndBack toBeRemoved
           0           1000     0            0           0
         482            462    56            0           0
         482            518     0            0           0
         981             18     1            0           0
         981             19     0            0           0
        1000              0     0            0           0
        1000              0     0            0           0

Solving cloud linearSubStepped:
    complete inInternalMesh walls frontAndBack toBeRemoved
           0           1000     0            0           0
           0            991     9            0           0
           0           1000     0            0           0
           0            997     3            0           0
           0           1000     0            0           0
           0            995     5            0           0
           0           1000     0            0           0
         890            108     2            0           0
         890            110     0            0           0
         999              1     0            0           0
         999              1     0            0           0
        1000              0     0            0           0
        1000              0     0            0           0

Solving cloud parabolic:
    complete inInternalMesh walls frontAndBack toBeRemoved
           0           1000     0            0           0
         694            280    26            0           0
         694            306     0            0           0
         978             19     3            0           0
         978             22     0            0           0
         995              5     0            0           0
         995              5     0            0           0
        1000              0     0            0           0
        1000              0     0            0           0

End

