Expanding #calc at line 18 in file "/home/kol/OpenFOAM/OpenFOAM-13/test/dictionary/testCalc"
Creating new library in "dynamicCode/_2841bb2d9b8d6f7202b9aae579097c7a6e751d68/platforms/linux64GccDPInt64Opt/lib/libcodeStream_2841bb2d9b8d6f7202b9aae579097c7a6e751d68.so"
"/home/kol/OpenFOAM/OpenFOAM-13/etc/codeTemplates/dynamicCode/codeStreamTemplate.C" "/home/kol/OpenFOAM/OpenFOAM-13/test/dictionary/dynamicCode/_2841bb2d9b8d6f7202b9aae579097c7a6e751d68/codeStreamTemplate.C"
Invoking "wmake -s libso /home/kol/OpenFOAM/OpenFOAM-13/test/dictionary/dynamicCode/_2841bb2d9b8d6f7202b9aae579097c7a6e751d68"
wmake libso /home/kol/OpenFOAM/OpenFOAM-13/test/dictionary/dynamicCode/_2841bb2d9b8d6f7202b9aae579097c7a6e751d68
    ln: ./lnInclude
make[1]: Entering directory '/home/kol/OpenFOAM/OpenFOAM-13/test/dictionary/dynamicCode/_2841bb2d9b8d6f7202b9aae579097c7a6e751d68'
    wmkdep: codeStreamTemplate.C
    Ctoo: codeStreamTemplate.C
    ld: /home/kol/OpenFOAM/OpenFOAM-13/test/dictionary/dynamicCode/_2841bb2d9b8d6f7202b9aae579097c7a6e751d68/../platforms/linux64GccDPInt64Opt/lib/libcodeStream_2841bb2d9b8d6f7202b9aae579097c7a6e751d68.so
make[1]: Leaving directory '/home/kol/OpenFOAM/OpenFOAM-13/test/dictionary/dynamicCode/_2841bb2d9b8d6f7202b9aae579097c7a6e751d68'
Expanding #calc at line 26 in file "/home/kol/OpenFOAM/OpenFOAM-13/test/dictionary/testCalc"
Creating new library in "dynamicCode/_637f22f4ce228ea0b28168ef91f086279686f001/platforms/linux64GccDPInt64Opt/lib/libcodeStream_637f22f4ce228ea0b28168ef91f086279686f001.so"
"/home/kol/OpenFOAM/OpenFOAM-13/etc/codeTemplates/dynamicCode/codeStreamTemplate.C" "/home/kol/OpenFOAM/OpenFOAM-13/test/dictionary/dynamicCode/_637f22f4ce228ea0b28168ef91f086279686f001/codeStreamTemplate.C"
Invoking "wmake -s libso /home/kol/OpenFOAM/OpenFOAM-13/test/dictionary/dynamicCode/_637f22f4ce228ea0b28168ef91f086279686f001"
wmake libso /home/kol/OpenFOAM/OpenFOAM-13/test/dictionary/dynamicCode/_637f22f4ce228ea0b28168ef91f086279686f001
    ln: ./lnInclude
make[1]: Entering directory '/home/kol/OpenFOAM/OpenFOAM-13/test/dictionary/dynamicCode/_637f22f4ce228ea0b28168ef91f086279686f001'
    wmkdep: codeStreamTemplate.C
    Ctoo: codeStreamTemplate.C
    ld: /home/kol/OpenFOAM/OpenFOAM-13/test/dictionary/dynamicCode/_637f22f4ce228ea0b28168ef91f086279686f001/../platforms/linux64GccDPInt64Opt/lib/libcodeStream_637f22f4ce228ea0b28168ef91f086279686f001.so
make[1]: Leaving directory '/home/kol/OpenFOAM/OpenFOAM-13/test/dictionary/dynamicCode/_637f22f4ce228ea0b28168ef91f086279686f001'
Expanding #calc at line 30 in file "/home/kol/OpenFOAM/OpenFOAM-13/test/dictionary/testCalc"
Creating new library in "dynamicCode/_6d4eebf8a2af0efb77d59581bd408fddc6622f56/platforms/linux64GccDPInt64Opt/lib/libcodeStream_6d4eebf8a2af0efb77d59581bd408fddc6622f56.so"
"/home/kol/OpenFOAM/OpenFOAM-13/etc/codeTemplates/dynamicCode/codeStreamTemplate.C" "/home/kol/OpenFOAM/OpenFOAM-13/test/dictionary/dynamicCode/_6d4eebf8a2af0efb77d59581bd408fddc6622f56/codeStreamTemplate.C"
Invoking "wmake -s libso /home/kol/OpenFOAM/OpenFOAM-13/test/dictionary/dynamicCode/_6d4eebf8a2af0efb77d59581bd408fddc6622f56"
wmake libso /home/kol/OpenFOAM/OpenFOAM-13/test/dictionary/dynamicCode/_6d4eebf8a2af0efb77d59581bd408fddc6622f56
    ln: ./lnInclude
make[1]: Entering directory '/home/kol/OpenFOAM/OpenFOAM-13/test/dictionary/dynamicCode/_6d4eebf8a2af0efb77d59581bd408fddc6622f56'
    wmkdep: codeStreamTemplate.C
    Ctoo: codeStreamTemplate.C
    ld: /home/kol/OpenFOAM/OpenFOAM-13/test/dictionary/dynamicCode/_6d4eebf8a2af0efb77d59581bd408fddc6622f56/../platforms/linux64GccDPInt64Opt/lib/libcodeStream_6d4eebf8a2af0efb77d59581bd408fddc6622f56.so
make[1]: Leaving directory '/home/kol/OpenFOAM/OpenFOAM-13/test/dictionary/dynamicCode/_6d4eebf8a2af0efb77d59581bd408fddc6622f56'
Expanding #calc at line 37 in file "/home/kol/OpenFOAM/OpenFOAM-13/test/dictionary/testCalc"
Creating new library in "dynamicCode/_bc06daf1d48ba48b4a546fe11fa60770fef058df/platforms/linux64GccDPInt64Opt/lib/libcodeStream_bc06daf1d48ba48b4a546fe11fa60770fef058df.so"
"/home/kol/OpenFOAM/OpenFOAM-13/etc/codeTemplates/dynamicCode/codeStreamTemplate.C" "/home/kol/OpenFOAM/OpenFOAM-13/test/dictionary/dynamicCode/_bc06daf1d48ba48b4a546fe11fa60770fef058df/codeStreamTemplate.C"
Invoking "wmake -s libso /home/kol/OpenFOAM/OpenFOAM-13/test/dictionary/dynamicCode/_bc06daf1d48ba48b4a546fe11fa60770fef058df"
wmake libso /home/kol/OpenFOAM/OpenFOAM-13/test/dictionary/dynamicCode/_bc06daf1d48ba48b4a546fe11fa60770fef058df
    ln: ./lnInclude
make[1]: Entering directory '/home/kol/OpenFOAM/OpenFOAM-13/test/dictionary/dynamicCode/_bc06daf1d48ba48b4a546fe11fa60770fef058df'
    wmkdep: codeStreamTemplate.C
    Ctoo: codeStreamTemplate.C
    ld: /home/kol/OpenFOAM/OpenFOAM-13/test/dictionary/dynamicCode/_bc06daf1d48ba48b4a546fe11fa60770fef058df/../platforms/linux64GccDPInt64Opt/lib/libcodeStream_bc06daf1d48ba48b4a546fe11fa60770fef058df.so
make[1]: Leaving directory '/home/kol/OpenFOAM/OpenFOAM-13/test/dictionary/dynamicCode/_bc06daf1d48ba48b4a546fe11fa60770fef058df'
Expanding #calc at line 42 in file "/home/kol/OpenFOAM/OpenFOAM-13/test/dictionary/testCalc"
Creating new library in "dynamicCode/_7575f9a59bef9e30a43ac9e947c534663973c2f6/platforms/linux64GccDPInt64Opt/lib/libcodeStream_7575f9a59bef9e30a43ac9e947c534663973c2f6.so"
"/home/kol/OpenFOAM/OpenFOAM-13/etc/codeTemplates/dynamicCode/codeStreamTemplate.C" "/home/kol/OpenFOAM/OpenFOAM-13/test/dictionary/dynamicCode/_7575f9a59bef9e30a43ac9e947c534663973c2f6/codeStreamTemplate.C"
Invoking "wmake -s libso /home/kol/OpenFOAM/OpenFOAM-13/test/dictionary/dynamicCode/_7575f9a59bef9e30a43ac9e947c534663973c2f6"
wmake libso /home/kol/OpenFOAM/OpenFOAM-13/test/dictionary/dynamicCode/_7575f9a59bef9e30a43ac9e947c534663973c2f6
    ln: ./lnInclude
make[1]: Entering directory '/home/kol/OpenFOAM/OpenFOAM-13/test/dictionary/dynamicCode/_7575f9a59bef9e30a43ac9e947c534663973c2f6'
    wmkdep: codeStreamTemplate.C
    Ctoo: codeStreamTemplate.C
    ld: /home/kol/OpenFOAM/OpenFOAM-13/test/dictionary/dynamicCode/_7575f9a59bef9e30a43ac9e947c534663973c2f6/../platforms/linux64GccDPInt64Opt/lib/libcodeStream_7575f9a59bef9e30a43ac9e947c534663973c2f6.so
make[1]: Leaving directory '/home/kol/OpenFOAM/OpenFOAM-13/test/dictionary/dynamicCode/_7575f9a59bef9e30a43ac9e947c534663973c2f6'
Expanding #calc at line 46 in file "/home/kol/OpenFOAM/OpenFOAM-13/test/dictionary/testCalc"
Creating new library in "dynamicCode/_5feceb7055df4532bde49e0a05b871a2f04832d7/platforms/linux64GccDPInt64Opt/lib/libcodeStream_5feceb7055df4532bde49e0a05b871a2f04832d7.so"
"/home/kol/OpenFOAM/OpenFOAM-13/etc/codeTemplates/dynamicCode/codeStreamTemplate.C" "/home/kol/OpenFOAM/OpenFOAM-13/test/dictionary/dynamicCode/_5feceb7055df4532bde49e0a05b871a2f04832d7/codeStreamTemplate.C"
Invoking "wmake -s libso /home/kol/OpenFOAM/OpenFOAM-13/test/dictionary/dynamicCode/_5feceb7055df4532bde49e0a05b871a2f04832d7"
wmake libso /home/kol/OpenFOAM/OpenFOAM-13/test/dictionary/dynamicCode/_5feceb7055df4532bde49e0a05b871a2f04832d7
    ln: ./lnInclude
make[1]: Entering directory '/home/kol/OpenFOAM/OpenFOAM-13/test/dictionary/dynamicCode/_5feceb7055df4532bde49e0a05b871a2f04832d7'
    wmkdep: codeStreamTemplate.C
    Ctoo: codeStreamTemplate.C
    ld: /home/kol/OpenFOAM/OpenFOAM-13/test/dictionary/dynamicCode/_5feceb7055df4532bde49e0a05b871a2f04832d7/../platforms/linux64GccDPInt64Opt/lib/libcodeStream_5feceb7055df4532bde49e0a05b871a2f04832d7.so
make[1]: Leaving directory '/home/kol/OpenFOAM/OpenFOAM-13/test/dictionary/dynamicCode/_5feceb7055df4532bde49e0a05b871a2f04832d7'
Expanding #calc at line 49 in file "/home/kol/OpenFOAM/OpenFOAM-13/test/dictionary/testCalc"
Creating new library in "dynamicCode/_3f0e736c111822aff40a7e2f712f0564974f407a/platforms/linux64GccDPInt64Opt/lib/libcodeStream_3f0e736c111822aff40a7e2f712f0564974f407a.so"
"/home/kol/OpenFOAM/OpenFOAM-13/etc/codeTemplates/dynamicCode/codeStreamTemplate.C" "/home/kol/OpenFOAM/OpenFOAM-13/test/dictionary/dynamicCode/_3f0e736c111822aff40a7e2f712f0564974f407a/codeStreamTemplate.C"
Invoking "wmake -s libso /home/kol/OpenFOAM/OpenFOAM-13/test/dictionary/dynamicCode/_3f0e736c111822aff40a7e2f712f0564974f407a"
wmake libso /home/kol/OpenFOAM/OpenFOAM-13/test/dictionary/dynamicCode/_3f0e736c111822aff40a7e2f712f0564974f407a
    ln: ./lnInclude
make[1]: Entering directory '/home/kol/OpenFOAM/OpenFOAM-13/test/dictionary/dynamicCode/_3f0e736c111822aff40a7e2f712f0564974f407a'
    wmkdep: codeStreamTemplate.C
    Ctoo: codeStreamTemplate.C
    ld: /home/kol/OpenFOAM/OpenFOAM-13/test/dictionary/dynamicCode/_3f0e736c111822aff40a7e2f712f0564974f407a/../platforms/linux64GccDPInt64Opt/lib/libcodeStream_3f0e736c111822aff40a7e2f712f0564974f407a.so
make[1]: Leaving directory '/home/kol/OpenFOAM/OpenFOAM-13/test/dictionary/dynamicCode/_3f0e736c111822aff40a7e2f712f0564974f407a'
Expanding #calc at line 55 in file "/home/kol/OpenFOAM/OpenFOAM-13/test/dictionary/testCalc"
Creating new library in "dynamicCode/_b5efd560b2ceecc20b61f872706c4b2b70629a17/platforms/linux64GccDPInt64Opt/lib/libcodeStream_b5efd560b2ceecc20b61f872706c4b2b70629a17.so"
"/home/kol/OpenFOAM/OpenFOAM-13/etc/codeTemplates/dynamicCode/codeStreamTemplate.C" "/home/kol/OpenFOAM/OpenFOAM-13/test/dictionary/dynamicCode/_b5efd560b2ceecc20b61f872706c4b2b70629a17/codeStreamTemplate.C"
Invoking "wmake -s libso /home/kol/OpenFOAM/OpenFOAM-13/test/dictionary/dynamicCode/_b5efd560b2ceecc20b61f872706c4b2b70629a17"
wmake libso /home/kol/OpenFOAM/OpenFOAM-13/test/dictionary/dynamicCode/_b5efd560b2ceecc20b61f872706c4b2b70629a17
    ln: ./lnInclude
make[1]: Entering directory '/home/kol/OpenFOAM/OpenFOAM-13/test/dictionary/dynamicCode/_b5efd560b2ceecc20b61f872706c4b2b70629a17'
    wmkdep: codeStreamTemplate.C
    Ctoo: codeStreamTemplate.C
    ld: /home/kol/OpenFOAM/OpenFOAM-13/test/dictionary/dynamicCode/_b5efd560b2ceecc20b61f872706c4b2b70629a17/../platforms/linux64GccDPInt64Opt/lib/libcodeStream_b5efd560b2ceecc20b61f872706c4b2b70629a17.so
make[1]: Leaving directory '/home/kol/OpenFOAM/OpenFOAM-13/test/dictionary/dynamicCode/_b5efd560b2ceecc20b61f872706c4b2b70629a17'
Expanding #calc at line 58 in file "/home/kol/OpenFOAM/OpenFOAM-13/test/dictionary/testCalc"
Creating new library in "dynamicCode/_29b4195c26919134b2d95c4262cee0b4addbbe79/platforms/linux64GccDPInt64Opt/lib/libcodeStream_29b4195c26919134b2d95c4262cee0b4addbbe79.so"
"/home/kol/OpenFOAM/OpenFOAM-13/etc/codeTemplates/dynamicCode/codeStreamTemplate.C" "/home/kol/OpenFOAM/OpenFOAM-13/test/dictionary/dynamicCode/_29b4195c26919134b2d95c4262cee0b4addbbe79/codeStreamTemplate.C"
Invoking "wmake -s libso /home/kol/OpenFOAM/OpenFOAM-13/test/dictionary/dynamicCode/_29b4195c26919134b2d95c4262cee0b4addbbe79"
wmake libso /home/kol/OpenFOAM/OpenFOAM-13/test/dictionary/dynamicCode/_29b4195c26919134b2d95c4262cee0b4addbbe79
    ln: ./lnInclude
make[1]: Entering directory '/home/kol/OpenFOAM/OpenFOAM-13/test/dictionary/dynamicCode/_29b4195c26919134b2d95c4262cee0b4addbbe79'
    wmkdep: codeStreamTemplate.C
    Ctoo: codeStreamTemplate.C
    ld: /home/kol/OpenFOAM/OpenFOAM-13/test/dictionary/dynamicCode/_29b4195c26919134b2d95c4262cee0b4addbbe79/../platforms/linux64GccDPInt64Opt/lib/libcodeStream_29b4195c26919134b2d95c4262cee0b4addbbe79.so
make[1]: Leaving directory '/home/kol/OpenFOAM/OpenFOAM-13/test/dictionary/dynamicCode/_29b4195c26919134b2d95c4262cee0b4addbbe79'
Expanding #calc at line 59 in file "/home/kol/OpenFOAM/OpenFOAM-13/test/dictionary/testCalc"
Creating new library in "dynamicCode/_c8684a6873520800419eb22dc56be7d48e964017/platforms/linux64GccDPInt64Opt/lib/libcodeStream_c8684a6873520800419eb22dc56be7d48e964017.so"
"/home/kol/OpenFOAM/OpenFOAM-13/etc/codeTemplates/dynamicCode/codeStreamTemplate.C" "/home/kol/OpenFOAM/OpenFOAM-13/test/dictionary/dynamicCode/_c8684a6873520800419eb22dc56be7d48e964017/codeStreamTemplate.C"
Invoking "wmake -s libso /home/kol/OpenFOAM/OpenFOAM-13/test/dictionary/dynamicCode/_c8684a6873520800419eb22dc56be7d48e964017"
wmake libso /home/kol/OpenFOAM/OpenFOAM-13/test/dictionary/dynamicCode/_c8684a6873520800419eb22dc56be7d48e964017
    ln: ./lnInclude
make[1]: Entering directory '/home/kol/OpenFOAM/OpenFOAM-13/test/dictionary/dynamicCode/_c8684a6873520800419eb22dc56be7d48e964017'
    wmkdep: codeStreamTemplate.C
    Ctoo: codeStreamTemplate.C
    ld: /home/kol/OpenFOAM/OpenFOAM-13/test/dictionary/dynamicCode/_c8684a6873520800419eb22dc56be7d48e964017/../platforms/linux64GccDPInt64Opt/lib/libcodeStream_c8684a6873520800419eb22dc56be7d48e964017.so
make[1]: Leaving directory '/home/kol/OpenFOAM/OpenFOAM-13/test/dictionary/dynamicCode/_c8684a6873520800419eb22dc56be7d48e964017'
Expanding #calc at line 63 in file "/home/kol/OpenFOAM/OpenFOAM-13/test/dictionary/testCalc"
Creating new library in "dynamicCode/_a4f35ab6c11932f9666db0641e04f804929c43cf/platforms/linux64GccDPInt64Opt/lib/libcodeStream_a4f35ab6c11932f9666db0641e04f804929c43cf.so"
"/home/kol/OpenFOAM/OpenFOAM-13/etc/codeTemplates/dynamicCode/codeStreamTemplate.C" "/home/kol/OpenFOAM/OpenFOAM-13/test/dictionary/dynamicCode/_a4f35ab6c11932f9666db0641e04f804929c43cf/codeStreamTemplate.C"
Invoking "wmake -s libso /home/kol/OpenFOAM/OpenFOAM-13/test/dictionary/dynamicCode/_a4f35ab6c11932f9666db0641e04f804929c43cf"
wmake libso /home/kol/OpenFOAM/OpenFOAM-13/test/dictionary/dynamicCode/_a4f35ab6c11932f9666db0641e04f804929c43cf
    ln: ./lnInclude
make[1]: Entering directory '/home/kol/OpenFOAM/OpenFOAM-13/test/dictionary/dynamicCode/_a4f35ab6c11932f9666db0641e04f804929c43cf'
    wmkdep: codeStreamTemplate.C
    Ctoo: codeStreamTemplate.C
    ld: /home/kol/OpenFOAM/OpenFOAM-13/test/dictionary/dynamicCode/_a4f35ab6c11932f9666db0641e04f804929c43cf/../platforms/linux64GccDPInt64Opt/lib/libcodeStream_a4f35ab6c11932f9666db0641e04f804929c43cf.so
make[1]: Leaving directory '/home/kol/OpenFOAM/OpenFOAM-13/test/dictionary/dynamicCode/_a4f35ab6c11932f9666db0641e04f804929c43cf'
Expanding #calc at line 64 in file "/home/kol/OpenFOAM/OpenFOAM-13/test/dictionary/testCalc"
Creating new library in "dynamicCode/_e4499f5075cae7f31c708b26b987c44ccb5d6d31/platforms/linux64GccDPInt64Opt/lib/libcodeStream_e4499f5075cae7f31c708b26b987c44ccb5d6d31.so"
"/home/kol/OpenFOAM/OpenFOAM-13/etc/codeTemplates/dynamicCode/codeStreamTemplate.C" "/home/kol/OpenFOAM/OpenFOAM-13/test/dictionary/dynamicCode/_e4499f5075cae7f31c708b26b987c44ccb5d6d31/codeStreamTemplate.C"
Invoking "wmake -s libso /home/kol/OpenFOAM/OpenFOAM-13/test/dictionary/dynamicCode/_e4499f5075cae7f31c708b26b987c44ccb5d6d31"
wmake libso /home/kol/OpenFOAM/OpenFOAM-13/test/dictionary/dynamicCode/_e4499f5075cae7f31c708b26b987c44ccb5d6d31
    ln: ./lnInclude
make[1]: Entering directory '/home/kol/OpenFOAM/OpenFOAM-13/test/dictionary/dynamicCode/_e4499f5075cae7f31c708b26b987c44ccb5d6d31'
    wmkdep: codeStreamTemplate.C
    Ctoo: codeStreamTemplate.C
    ld: /home/kol/OpenFOAM/OpenFOAM-13/test/dictionary/dynamicCode/_e4499f5075cae7f31c708b26b987c44ccb5d6d31/../platforms/linux64GccDPInt64Opt/lib/libcodeStream_e4499f5075cae7f31c708b26b987c44ccb5d6d31.so
make[1]: Leaving directory '/home/kol/OpenFOAM/OpenFOAM-13/test/dictionary/dynamicCode/_e4499f5075cae7f31c708b26b987c44ccb5d6d31'
Expanding #calc at line 72 in file "/home/kol/OpenFOAM/OpenFOAM-13/test/dictionary/testCalc"
Creating new library in "dynamicCode/_7f22502e11e4b355768c853e68169728a912edef/platforms/linux64GccDPInt64Opt/lib/libcodeStream_7f22502e11e4b355768c853e68169728a912edef.so"
"/home/kol/OpenFOAM/OpenFOAM-13/etc/codeTemplates/dynamicCode/codeStreamTemplate.C" "/home/kol/OpenFOAM/OpenFOAM-13/test/dictionary/dynamicCode/_7f22502e11e4b355768c853e68169728a912edef/codeStreamTemplate.C"
Invoking "wmake -s libso /home/kol/OpenFOAM/OpenFOAM-13/test/dictionary/dynamicCode/_7f22502e11e4b355768c853e68169728a912edef"
wmake libso /home/kol/OpenFOAM/OpenFOAM-13/test/dictionary/dynamicCode/_7f22502e11e4b355768c853e68169728a912edef
    ln: ./lnInclude
make[1]: Entering directory '/home/kol/OpenFOAM/OpenFOAM-13/test/dictionary/dynamicCode/_7f22502e11e4b355768c853e68169728a912edef'
    wmkdep: codeStreamTemplate.C
    Ctoo: codeStreamTemplate.C
    ld: /home/kol/OpenFOAM/OpenFOAM-13/test/dictionary/dynamicCode/_7f22502e11e4b355768c853e68169728a912edef/../platforms/linux64GccDPInt64Opt/lib/libcodeStream_7f22502e11e4b355768c853e68169728a912edef.so
make[1]: Leaving directory '/home/kol/OpenFOAM/OpenFOAM-13/test/dictionary/dynamicCode/_7f22502e11e4b355768c853e68169728a912edef'
Expanding #calc at line 88 in file "/home/kol/OpenFOAM/OpenFOAM-13/test/dictionary/testCalc"
Creating new library in "dynamicCode/_3b6a11b2705e43d6926b6f26494992b1d22b8889/platforms/linux64GccDPInt64Opt/lib/libcodeStream_3b6a11b2705e43d6926b6f26494992b1d22b8889.so"
"/home/kol/OpenFOAM/OpenFOAM-13/etc/codeTemplates/dynamicCode/codeStreamTemplate.C" "/home/kol/OpenFOAM/OpenFOAM-13/test/dictionary/dynamicCode/_3b6a11b2705e43d6926b6f26494992b1d22b8889/codeStreamTemplate.C"
Invoking "wmake -s libso /home/kol/OpenFOAM/OpenFOAM-13/test/dictionary/dynamicCode/_3b6a11b2705e43d6926b6f26494992b1d22b8889"
wmake libso /home/kol/OpenFOAM/OpenFOAM-13/test/dictionary/dynamicCode/_3b6a11b2705e43d6926b6f26494992b1d22b8889
    ln: ./lnInclude
make[1]: Entering directory '/home/kol/OpenFOAM/OpenFOAM-13/test/dictionary/dynamicCode/_3b6a11b2705e43d6926b6f26494992b1d22b8889'
    wmkdep: codeStreamTemplate.C
    Ctoo: codeStreamTemplate.C
    ld: /home/kol/OpenFOAM/OpenFOAM-13/test/dictionary/dynamicCode/_3b6a11b2705e43d6926b6f26494992b1d22b8889/../platforms/linux64GccDPInt64Opt/lib/libcodeStream_3b6a11b2705e43d6926b6f26494992b1d22b8889.so
make[1]: Leaving directory '/home/kol/OpenFOAM/OpenFOAM-13/test/dictionary/dynamicCode/_3b6a11b2705e43d6926b6f26494992b1d22b8889'
Expanding #calc at line 92 in file "/home/kol/OpenFOAM/OpenFOAM-13/test/dictionary/testCalc"
Creating new library in "dynamicCode/_27f4505f23df05090a659c6f1320de01da8da4c1/platforms/linux64GccDPInt64Opt/lib/libcodeStream_27f4505f23df05090a659c6f1320de01da8da4c1.so"
"/home/kol/OpenFOAM/OpenFOAM-13/etc/codeTemplates/dynamicCode/codeStreamTemplate.C" "/home/kol/OpenFOAM/OpenFOAM-13/test/dictionary/dynamicCode/_27f4505f23df05090a659c6f1320de01da8da4c1/codeStreamTemplate.C"
Invoking "wmake -s libso /home/kol/OpenFOAM/OpenFOAM-13/test/dictionary/dynamicCode/_27f4505f23df05090a659c6f1320de01da8da4c1"
wmake libso /home/kol/OpenFOAM/OpenFOAM-13/test/dictionary/dynamicCode/_27f4505f23df05090a659c6f1320de01da8da4c1
    ln: ./lnInclude
make[1]: Entering directory '/home/kol/OpenFOAM/OpenFOAM-13/test/dictionary/dynamicCode/_27f4505f23df05090a659c6f1320de01da8da4c1'
    wmkdep: codeStreamTemplate.C
    Ctoo: codeStreamTemplate.C
    ld: /home/kol/OpenFOAM/OpenFOAM-13/test/dictionary/dynamicCode/_27f4505f23df05090a659c6f1320de01da8da4c1/../platforms/linux64GccDPInt64Opt/lib/libcodeStream_27f4505f23df05090a659c6f1320de01da8da4c1.so
make[1]: Leaving directory '/home/kol/OpenFOAM/OpenFOAM-13/test/dictionary/dynamicCode/_27f4505f23df05090a659c6f1320de01da8da4c1'
Expanding #calc at line 93 in file "/home/kol/OpenFOAM/OpenFOAM-13/test/dictionary/testCalc"
Creating new library in "dynamicCode/_d4fc11eadc8c83b794c8af755b85ca93a101326b/platforms/linux64GccDPInt64Opt/lib/libcodeStream_d4fc11eadc8c83b794c8af755b85ca93a101326b.so"
"/home/kol/OpenFOAM/OpenFOAM-13/etc/codeTemplates/dynamicCode/codeStreamTemplate.C" "/home/kol/OpenFOAM/OpenFOAM-13/test/dictionary/dynamicCode/_d4fc11eadc8c83b794c8af755b85ca93a101326b/codeStreamTemplate.C"
Invoking "wmake -s libso /home/kol/OpenFOAM/OpenFOAM-13/test/dictionary/dynamicCode/_d4fc11eadc8c83b794c8af755b85ca93a101326b"
wmake libso /home/kol/OpenFOAM/OpenFOAM-13/test/dictionary/dynamicCode/_d4fc11eadc8c83b794c8af755b85ca93a101326b
    ln: ./lnInclude
make[1]: Entering directory '/home/kol/OpenFOAM/OpenFOAM-13/test/dictionary/dynamicCode/_d4fc11eadc8c83b794c8af755b85ca93a101326b'
    wmkdep: codeStreamTemplate.C
    Ctoo: codeStreamTemplate.C
    ld: /home/kol/OpenFOAM/OpenFOAM-13/test/dictionary/dynamicCode/_d4fc11eadc8c83b794c8af755b85ca93a101326b/../platforms/linux64GccDPInt64Opt/lib/libcodeStream_d4fc11eadc8c83b794c8af755b85ca93a101326b.so
make[1]: Leaving directory '/home/kol/OpenFOAM/OpenFOAM-13/test/dictionary/dynamicCode/_d4fc11eadc8c83b794c8af755b85ca93a101326b'
Expanding #calc at line 97 in file "/home/kol/OpenFOAM/OpenFOAM-13/test/dictionary/testCalc"
Creating new library in "dynamicCode/_54a74f27067db5ac4481a55fa6f9a2bb74177b1e/platforms/linux64GccDPInt64Opt/lib/libcodeStream_54a74f27067db5ac4481a55fa6f9a2bb74177b1e.so"
"/home/kol/OpenFOAM/OpenFOAM-13/etc/codeTemplates/dynamicCode/codeStreamTemplate.C" "/home/kol/OpenFOAM/OpenFOAM-13/test/dictionary/dynamicCode/_54a74f27067db5ac4481a55fa6f9a2bb74177b1e/codeStreamTemplate.C"
Invoking "wmake -s libso /home/kol/OpenFOAM/OpenFOAM-13/test/dictionary/dynamicCode/_54a74f27067db5ac4481a55fa6f9a2bb74177b1e"
wmake libso /home/kol/OpenFOAM/OpenFOAM-13/test/dictionary/dynamicCode/_54a74f27067db5ac4481a55fa6f9a2bb74177b1e
    ln: ./lnInclude
make[1]: Entering directory '/home/kol/OpenFOAM/OpenFOAM-13/test/dictionary/dynamicCode/_54a74f27067db5ac4481a55fa6f9a2bb74177b1e'
    wmkdep: codeStreamTemplate.C
    Ctoo: codeStreamTemplate.C
    ld: /home/kol/OpenFOAM/OpenFOAM-13/test/dictionary/dynamicCode/_54a74f27067db5ac4481a55fa6f9a2bb74177b1e/../platforms/linux64GccDPInt64Opt/lib/libcodeStream_54a74f27067db5ac4481a55fa6f9a2bb74177b1e.so
make[1]: Leaving directory '/home/kol/OpenFOAM/OpenFOAM-13/test/dictionary/dynamicCode/_54a74f27067db5ac4481a55fa6f9a2bb74177b1e'
Expanding #calc at line 101 in file "/home/kol/OpenFOAM/OpenFOAM-13/test/dictionary/testCalc"
Creating new library in "dynamicCode/_01a39425194def389b42526d8609a4ec4a20efec/platforms/linux64GccDPInt64Opt/lib/libcodeStream_01a39425194def389b42526d8609a4ec4a20efec.so"
"/home/kol/OpenFOAM/OpenFOAM-13/etc/codeTemplates/dynamicCode/codeStreamTemplate.C" "/home/kol/OpenFOAM/OpenFOAM-13/test/dictionary/dynamicCode/_01a39425194def389b42526d8609a4ec4a20efec/codeStreamTemplate.C"
Invoking "wmake -s libso /home/kol/OpenFOAM/OpenFOAM-13/test/dictionary/dynamicCode/_01a39425194def389b42526d8609a4ec4a20efec"
wmake libso /home/kol/OpenFOAM/OpenFOAM-13/test/dictionary/dynamicCode/_01a39425194def389b42526d8609a4ec4a20efec
    ln: ./lnInclude
make[1]: Entering directory '/home/kol/OpenFOAM/OpenFOAM-13/test/dictionary/dynamicCode/_01a39425194def389b42526d8609a4ec4a20efec'
    wmkdep: codeStreamTemplate.C
    Ctoo: codeStreamTemplate.C
    ld: /home/kol/OpenFOAM/OpenFOAM-13/test/dictionary/dynamicCode/_01a39425194def389b42526d8609a4ec4a20efec/../platforms/linux64GccDPInt64Opt/lib/libcodeStream_01a39425194def389b42526d8609a4ec4a20efec.so
make[1]: Leaving directory '/home/kol/OpenFOAM/OpenFOAM-13/test/dictionary/dynamicCode/_01a39425194def389b42526d8609a4ec4a20efec'
/*--------------------------------*- C++ -*----------------------------------*\
  =========                 |
  \\      /  F ield         | OpenFOAM: The Open Source CFD Toolbox
   \\    /   O peration     | Website:  https://openfoam.org
    \\  /    A nd           | Version:  13
     \\/     M anipulation  |
\*---------------------------------------------------------------------------*/
//
// "testCalc"
//
FoamFile
{
    format          ascii;
    class           dictionary;
    object          testCalc;
}

a               1.1;

b               3.2;

c               0.34375;

d
{
    b               4.8;
}

e               0.229167;

f
{
    g               0.229167;
}

s               "field";

fieldName       "fieldName";

time            100;

fileName        "movingBox_100.obj";

angleOfAttack   5;

angle           -0.0872665;

liftDir         ( -0.0871558 0 0.996195 );

dragDir         ( 0.996195 0 0.0871558 );

magU            10.4159;

k               0.406837;

maxAngle        30;

nAngles         7;

Us              7 ( ( 10.2 2.1 0.2 ) ( 10.1786 2.1 -0.68975 ) ( 10.0798 2.1 -1.57425 ) ( 9.90421 2.1 -2.44677 ) ( 9.65327 2.1 -3.30067 ) ( 9.32886 2.1 -4.12944 ) ( 8.93346 2.1 -4.92679 ) );

listU           ( ( 1.1 2.1 1.1 ) ( 2.1 3.2 4.1 ) ( 4.3 5.3 0 ) );

magU1           5.60892;

magUs           3 ( 2.61343 5.60892 6.82495 );

magSqrU1        31.46;

namedU          ( U0 ( 1.1 2.1 1.1 ) U1 ( 2.1 3.2 4.1 ) U2 ( 4.3 5.3 0 ) );

magU2           6.82495;

listU2          List<vector> 3((1.1 2.1 1.1) (2.1 3.2 4.1) (4.3 5.3 0));

magU21          5.60892;


// ************************************************************************* //
