/*---------------------------------------------------------------------------*\
| =========                 |                                                 |
| \\      /  F ield         | OpenFOAM: The Open Source CFD Toolbox           |
|  \\    /   O peration     | Version:  2412                                  |
|   \\  /    A nd           | Website:  www.openfoam.com                      |
|    \\/     M anipulation  |                                                 |
\*---------------------------------------------------------------------------*/
Build  : _8dbc61e11c-20241220 OPENFOAM=2412 version=v2412
Arch   : "LSB;label=64;scalar=64"
Exec   : topoSet
Date   : Jun 23 2026
Time   : 11:09:25
Host   : kol-serv
PID    : 843456
I/O    : uncollated
Case   : /home/kol/OpenFOAM/OpenFOAM-12/test/multiphaseEuler/populationBalance/isothermalGrowth
nProcs : 1
trapFpe: Floating point exception trapping enabled (FOAM_SIGFPE).
fileModificationChecking : Monitoring run-time modified files using timeStampMaster (fileModificationSkew 5, maxFileModificationPolls 20)
allowSystemOperations : Allowing user-supplied system call operations

// * * * * * * * * * * * * * * * * * * * * * * * * * * * * * * * * * * * * * //
Create time

--> FOAM Warning : 
    From static Foam::IOstreamOption::compressionType Foam::IOstreamOption::compressionEnum(const Foam::word&, compressionType)
    in file db/options/IOstreamOption.C at line 189
    Unknown compression specifier 'uncompressed' using compression off
Create polyMesh for time = 0

Reading topoSetDict

Time = 0
    mesh not changed.
Created cellSet injection
    Applying source boxToCell
    Adding cells with centre within boxes 1((0 0.04 0) (0.1 0.05 0.1))
    cellSet injection now size 1
Created cellZoneSet injection
    Applying source setToCellZone
    Adding all cells from cell set: injection ...
    cellZoneSet injection now size 1

End

