boundaryFoam: symbol lookup error: boundaryFoam: undefined symbol: _ZN4Foam8IOstream4nameEv
