/*---------------------------------------------------------------------------*\
  =========                 |
  \\      /  F ield         | OpenFOAM: The Open Source CFD Toolbox
   \\    /   O peration     | Website:  https://openfoam.org
    \\  /    A nd           | Version:  13
     \\/     M anipulation  |
\*---------------------------------------------------------------------------*/
Build  : 13-19a3d5400c8c
Exec   : decomposePar
Date   : Jun 23 2026
Time   : 13:54:10
Host   : "kol-serv"
PID    : 1255987
I/O    : uncollated
Case   : /home/kol/OpenFOAM/OpenFOAM-13/test/Lagrangian/boundaries
nProcs : 1
sigFpe : Enabling floating point exception trapping (FOAM_SIGFPE).
fileModificationChecking : Monitoring run-time modified files using timeStampMaster (fileModificationSkew 10)
allowSystemOperations : Allowing user-supplied system call operations

// * * * * * * * * * * * * * * * * * * * * * * * * * * * * * * * * * * * * * //
Create time

--> FOAM Warning : 
    From function virtual void Foam::wedgePolyPatch::calcGeometry(Foam::PstreamBuffers&)
    in file meshes/polyMesh/polyPatches/constraint/wedge/wedgePolyPatch.C at line 231
    Wedge patch 'backWedge0' may not be sufficiently planar
At patch face #393 with centre (0.3041 0.183074 -0.0140613) the normal (3.47094e-07 -0.0523343 -0.99863) differs from the average normal (-8.78993e-09 -0.0523358 -0.99863) by 2.52169e-12

--> FOAM Warning : 
    From function virtual void Foam::wedgePolyPatch::calcGeometry(Foam::PstreamBuffers&)
    in file meshes/polyMesh/polyPatches/constraint/wedge/wedgePolyPatch.C at line 231
    Wedge patch 'frontWedge1' may not be sufficiently planar
At patch face #393 with centre (0.3041 0.183074 0.0140613) the normal (3.47094e-07 -0.0523343 0.99863) differs from the average normal (-8.78993e-09 -0.0523358 0.99863) by 2.52169e-12

Calculating distribution of cells

Selecting decomposer hierarchical

Finished decomposition in 0.00071 s

Calculating original mesh data

Distributing cells to processors

Distributing faces to processors

Distributing points to processors

Constructing processor meshes

Processor 0
    Number of cells = 333
    Number of faces shared with processor 1 = 25
    Number of faces shared with processor 1 = 10
    Number of faces shared with processor 1 = 0
    Number of faces shared with processor 3 = 14
    Number of processor patches = 4
    Number of processor faces = 49
    Number of boundary faces = 695

Processor 1
    Number of cells = 333
    Number of faces shared with processor 0 = 25
    Number of faces shared with processor 0 = 10
    Number of faces shared with processor 0 = 0
    Number of faces shared with processor 2 = 26
    Number of faces shared with processor 2 = 10
    Number of faces shared with processor 2 = 0
    Number of faces shared with processor 3 = 2
    Number of faces shared with processor 4 = 15
    Number of faces shared with processor 5 = 3
    Number of processor patches = 9
    Number of processor faces = 91
    Number of boundary faces = 709

Processor 2
    Number of cells = 334
    Number of faces shared with processor 1 = 26
    Number of faces shared with processor 1 = 10
    Number of faces shared with processor 1 = 0
    Number of faces shared with processor 5 = 13
    Number of processor patches = 4
    Number of processor faces = 49
    Number of boundary faces = 697

Processor 3
    Number of cells = 333
    Number of faces shared with processor 0 = 14
    Number of faces shared with processor 1 = 2
    Number of faces shared with processor 4 = 24
    Number of processor patches = 3
    Number of processor faces = 40
    Number of boundary faces = 704

Processor 4
    Number of cells = 333
    Number of faces shared with processor 1 = 15
    Number of faces shared with processor 3 = 24
    Number of faces shared with processor 5 = 25
    Number of processor patches = 3
    Number of processor faces = 64
    Number of boundary faces = 728

Processor 5
    Number of cells = 334
    Number of faces shared with processor 1 = 3
    Number of faces shared with processor 2 = 13
    Number of faces shared with processor 4 = 25
    Number of processor patches = 3
    Number of processor faces = 41
    Number of boundary faces = 707

Number of processor faces = 167
Max number of cells = 334 (0.2% above average 333.333)
Max number of processor patches = 9 (107.692% above average 4.33333)
Max number of faces between processors = 91 (63.4731% above average 55.6667)

Time = 0s

Decomposing FV fields

    Decomposing volScalarFields

        p

    Decomposing volVectorFields

        U

Decomposing point fields

    (no point fields)

Decomposing Lagrangian fields for kinematicParticle

    Decomposing LagrangianScalarFields

        d

    Decomposing LagrangianVectorFields

        U

End

