/*---------------------------------------------------------------------------*\
  =========                 |
  \\      /  F ield         | OpenFOAM: The Open Source CFD Toolbox
   \\    /   O peration     | Website:  https://openfoam.org
    \\  /    A nd           | Version:  13
     \\/     M anipulation  |
\*---------------------------------------------------------------------------*/
Build  : 13-19a3d5400c8c
Exec   : foamRun -parallel
Date   : Jun 23 2026
Time   : 13:54:10
Host   : "kol-serv"
PID    : 1256012
I/O    : uncollated
Case   : /home/kol/OpenFOAM/OpenFOAM-13/test/Lagrangian/boundaries
nProcs : 6
Slaves : 
5
(
"kol-serv.1256013"
"kol-serv.1256014"
"kol-serv.1256015"
"kol-serv.1256016"
"kol-serv.1256017"
)

Pstream initialised with:
    floatTransfer      : false
    nProcsSimpleSum    : 0
    commsType          : nonBlocking
    polling iterations : 0
sigFpe : Enabling floating point exception trapping (FOAM_SIGFPE).
fileModificationChecking : Monitoring run-time modified files using timeStampMaster (fileModificationSkew 10)
allowSystemOperations : Allowing user-supplied system call operations

// * * * * * * * * * * * * * * * * * * * * * * * * * * * * * * * * * * * * * //
Create time

Create mesh for time = 0

--> FOAM Warning : 
    From function virtual void Foam::wedgePolyPatch::calcGeometry(Foam::PstreamBuffers&)
    in file meshes/polyMesh/polyPatches/constraint/wedge/wedgePolyPatch.C at line 231
    Wedge patch 'backWedge0' may not be sufficiently planar
At patch face #236 on processor #5 with centre (0.3041 0.183074 -0.0140613) the normal (3.47094e-07 -0.0523343 -0.99863) differs from the average normal (-8.78993e-09 -0.0523358 -0.99863) by 2.52169e-12

--> FOAM Warning : 
    From function virtual void Foam::wedgePolyPatch::calcGeometry(Foam::PstreamBuffers&)
    in file meshes/polyMesh/polyPatches/constraint/wedge/wedgePolyPatch.C at line 231
    Wedge patch 'frontWedge1' may not be sufficiently planar
At patch face #236 on processor #5 with centre (0.3041 0.183074 0.0140613) the normal (3.47094e-07 -0.0523343 0.99863) differs from the average normal (-8.78993e-09 -0.0523358 0.99863) by 2.52169e-12

patchToPatch: Calculating couplings between ...
    source patch nonCouple0 with 10 faces and ...
    target patch nonCouple1 with 10 faces ...
    with transformation separation=(-0.1 0 0)
    Source min/average/max coverage = 1/1/1
    Target min/average/max coverage = 0/0.666667/1
    Source average openness/error/depth/angle = 8.47033e-17/1.52285e-16/0/0
    Source max openness/error/depth/angle = 1.69407e-16/6.88299e-16/0/0
    30 couplings calculated in 0.001454s
patchToPatch: Calculating couplings between ...
    source patch nonCouple2 with 10 faces and ...
    target patch nonCouple3 with 10 faces ...
    with transformation axis=(0 0 1), centre=(0.25 -0.0852315 0), angle=24
    Source min/average/max coverage = 1/1/1
    Target min/average/max coverage = 0/0.730019/1
    Source average openness/error/depth/angle = 1.20101e-16/1.66389e-05/5.63887e-05/0.00071941
    Source max openness/error/depth/angle = 2.89665e-16/0.000166389/7.97404e-05/0.000719411
    32 couplings calculated in 0.001266s
fvMeshStitcher: Connecting
    Cell min/average/max openness = 0/6.8001e-17/9.82479e-16
    Cell min/average/max projected volume fraction = 0/0.250001/0.500215
--> FOAM Warning : 
    From function bool Foam::fvMeshStitcher::connectThis(bool, bool, bool)
    in file fvMesh/fvMeshStitchers/fvMeshStitcher/fvMeshStitcher.C at line 1954
    Maximum projected volume fraction 0.500215 may cause instability.
    Volumetric distortion can be minimised by making the side of the interface
    with smaller or more finely layered cells the neighbour.
    This is done by specifying this side second to createNonConformalCouples;
    either on the command line, or in the patches (and regions) entries within
    the createNonConformalCouplesDict.
Selecting solver functions
Selecting solver incompressibleFluid
Selecting viscosity model Newtonian
Selecting turbulence model type laminar
    Selecting laminar stress model Stokes
No MRF models present

Courant Number mean: 0 max: 0

PIMPLE: No convergence criteria found


PIMPLE: Operating solver in transient mode with 1 outer corrector
PIMPLE: Operating solver in PISO mode



Starting time loop

Selecting LagrangianModel with name injectionSlabOpen of type pointInjection
Selecting LagrangianModel with name injectionWedgeOpen of type pointInjection
Selecting LagrangianModel with name injectionSlabSymmetry of type pointInjection
Selecting LagrangianModel with name injectionWedgeSymmetry of type pointInjection
Selecting LagrangianModel with name injectionSlabSymmetryPlane of type pointInjection
Selecting LagrangianModel with name injectionWedgeSymmetryPlane of type pointInjection
Selecting LagrangianModel with name injectionSlabCyclic of type pointInjection
Selecting LagrangianModel with name injectionWedgeCyclic of type pointInjection
Selecting LagrangianModel with name injectionSlabNonConformalCyclic of type pointInjection
Selecting LagrangianModel with name injectionWedgeNonConformalCyclic of type pointInjection
Selecting LagrangianModel with name drag of type SchillerNaumannDrag
volFieldValue volIntegrate(kinematicParticle:alpha) read:
    number of cells = 2000
    volume = 0.00107513
    operation = volIntegrate

--> FOAM Warning :     functionObjects::volFieldValue volIntegrate(kinematicParticle:alpha) cannot find required object kinematicParticle:alpha
Time = 0.01s

ExecutionTime = 0.199812 s  ClockTime = 1 s

Solving cloud kinematicParticle:
    patchToPatch: Calculating couplings between ...
        source patch nonCouple0 with 10 faces and ...
        target patch nonCouple1 with 10 faces ...
        with transformation separation=(-0.1 0 0)
        34 couplings calculated in 0.000335s
    patchToPatch: Calculating couplings between ...
        source patch nonCouple2 with 10 faces and ...
        target patch nonCouple3 with 10 faces ...
        with transformation axis=(0 0 1), centre=(0.25 -0.0852315 0), angle=24
        38 couplings calculated in 0.00031s
    complete inInternalMesh open0 open1 open2 open3 symmetry0 symmetry1 symmetry2 symmetry3 symmetryPlane0 symmetryPlane1 symmetryPlane2 symmetryPlane3 cyclic0 cyclic1 cyclic2 cyclic3 nonCouple0 nonCouple1 nonCouple2 nonCouple3 backEmpty0 frontEmpty1 backWedge0 frontWedge1 walls slab_on_nonCouple0 slab_on_nonCouple1 wedge_on_nonCouple2 wedge_on_nonCouple3 (processor) (processor)cyclic0 (processor)cyclic1 (processor)cyclic2 (processor)cyclic3 (processor)slab_on_nonCouple0 (processor)slab_on_nonCouple1 (processor)wedge_on_nonCouple2 (processor)wedge_on_nonCouple3 toBeRemoved
           0           1800     0     0     0     0         0         0         0         0              0              0              0              0       0       0       0       0          0          0          0          0          0           0          0           0     0                  0                  0                   0                   0           0                  0                  0                  0                  0                             0                             0                              0                              0           0
         185           1615     0     0     0     0         0         0         0         0              0              0              0              0       0       0       0       0          0          0          0          0          0           0          0           0     0                  0                  0                   0                   0           0                  0                  0                  0                  0                             0                             0                              0                              0           0
         185           1615     0     0     0     0         0         0         0         0              0              0              0              0       0       0       0       0          0          0          0          0          0           0          0           0     0                  0                  0                   0                   0           0                  0                  0                  0                  0                             0                             0                              0                              0           0
         844            956     0     0     0     0         0         0         0         0              0              0              0              0       0       0       0       0          0          0          0          0          0           0          0           0     0                  0                  0                   0                   0           0                  0                  0                  0                  0                             0                             0                              0                              0           0
         844            956     0     0     0     0         0         0         0         0              0              0              0              0       0       0       0       0          0          0          0          0          0           0          0           0     0                  0                  0                   0                   0           0                  0                  0                  0                  0                             0                             0                              0                              0           0
        1393            346     0     0     0     0         0         0         0         0              0              0              0              0       0       0       0       0          0          0          0          0          0          44          0          17     0                  0                  0                   0                   0           0                  0                  0                  0                  0                             0                             0                              0                              0           0
        1393            407     0     0     0     0         0         0         0         0              0              0              0              0       0       0       0       0          0          0          0          0          0           0          0           0     0                  0                  0                   0                   0           0                  0                  0                  0                  0                             0                             0                              0                              0           0
        1700            100     0     0     0     0         0         0         0         0              0              0              0              0       0       0       0       0          0          0          0          0          0           0          0           0     0                  0                  0                   0                   0           0                  0                  0                  0                  0                             0                             0                              0                              0           0
        1700            100     0     0     0     0         0         0         0         0              0              0              0              0       0       0       0       0          0          0          0          0          0           0          0           0     0                  0                  0                   0                   0           0                  0                  0                  0                  0                             0                             0                              0                              0           0
        1764             36     0     0     0     0         0         0         0         0              0              0              0              0       0       0       0       0          0          0          0          0          0           0          0           0     0                  0                  0                   0                   0           0                  0                  0                  0                  0                             0                             0                              0                              0           0
        1764             36     0     0     0     0         0         0         0         0              0              0              0              0       0       0       0       0          0          0          0          0          0           0          0           0     0                  0                  0                   0                   0           0                  0                  0                  0                  0                             0                             0                              0                              0           0
        1800              0     0     0     0     0         0         0         0         0              0              0              0              0       0       0       0       0          0          0          0          0          0           0          0           0     0                  0                  0                   0                   0           0                  0                  0                  0                  0                             0                             0                              0                              0           0
        1800              0     0     0     0     0         0         0         0         0              0              0              0              0       0       0       0       0          0          0          0          0          0           0          0           0     0                  0                  0                   0                   0           0                  0                  0                  0                  0                             0                             0                              0                              0           0

Time = 0.02s

ExecutionTime = 0.244012 s  ClockTime = 1 s

Solving cloud kinematicParticle:
    complete inInternalMesh open0 open1 open2 open3 symmetry0 symmetry1 symmetry2 symmetry3 symmetryPlane0 symmetryPlane1 symmetryPlane2 symmetryPlane3 cyclic0 cyclic1 cyclic2 cyclic3 nonCouple0 nonCouple1 nonCouple2 nonCouple3 backEmpty0 frontEmpty1 backWedge0 frontWedge1 walls slab_on_nonCouple0 slab_on_nonCouple1 wedge_on_nonCouple2 wedge_on_nonCouple3 (processor) (processor)cyclic0 (processor)cyclic1 (processor)cyclic2 (processor)cyclic3 (processor)slab_on_nonCouple0 (processor)slab_on_nonCouple1 (processor)wedge_on_nonCouple2 (processor)wedge_on_nonCouple3 toBeRemoved
           0           3600     0     0     0     0         0         0         0         0              0              0              0              0       0       0       0       0          0          0          0          0          0           0          0           0     0                  0                  0                   0                   0           0                  0                  0                  0                  0                             0                             0                              0                              0           0
         186           3296     0     0     0     0         0         0         0         0              0              0              0              0       0       0       0       0          0          0          0          0          0           0          0          14     0                  0                  0                   0                   0         104                  0                  0                  0                  0                             0                             0                              0                              0           0
         186           3414     0     0     0     0         0         0         0         0              0              0              0              0       0       0       0       0          0          0          0          0          0           0          0           0     0                  0                  0                   0                   0           0                  0                  0                  0                  0                             0                             0                              0                              0           0
         887           2359     0     0     0     0         0         0         0         0              0              0              0              0       0       0       0       0          0          0          0          0         18          56          0          69     0                  0                  0                   0                   0         211                  0                  0                  0                  0                             0                             0                              0                              0           0
         887           2713     0     0     0     0         0         0         0         0              0              0              0              0       0       0       0       0          0          0          0          0          0           0          0           0     0                  0                  0                   0                   0           0                  0                  0                  0                  0                             0                             0                              0                              0           0
        2240           1160     0     0     0     0         0         0         0         0              0              0              0              0       0       0       0       0          0          0          0          0         23          43          0          19     0                  0                  0                   0                   0         115                  0                  0                  0                  0                             0                             0                              0                              0           0
        2240           1360     0     0     0     0         0         0         0         0              0              0              0              0       0       0       0       0          0          0          0          0          0           0          0           0     0                  0                  0                   0                   0           0                  0                  0                  0                  0                             0                             0                              0                              0           0
        3266            314     0     0     0     0         0         0         0         0              0              0              0              0       0       0       0       0          0          0          0          0          0           0          0           0     0                  0                  0                   0                   0          20                  0                  0                  0                  0                             0                             0                              0                              0           0
        3266            334     0     0     0     0         0         0         0         0              0              0              0              0       0       0       0       0          0          0          0          0          0           0          0           0     0                  0                  0                   0                   0           0                  0                  0                  0                  0                             0                             0                              0                              0           0
        3563             37     0     0     0     0         0         0         0         0              0              0              0              0       0       0       0       0          0          0          0          0          0           0          0           0     0                  0                  0                   0                   0           0                  0                  0                  0                  0                             0                             0                              0                              0           0
        3563             37     0     0     0     0         0         0         0         0              0              0              0              0       0       0       0       0          0          0          0          0          0           0          0           0     0                  0                  0                   0                   0           0                  0                  0                  0                  0                             0                             0                              0                              0           0
        3600              0     0     0     0     0         0         0         0         0              0              0              0              0       0       0       0       0          0          0          0          0          0           0          0           0     0                  0                  0                   0                   0           0                  0                  0                  0                  0                             0                             0                              0                              0           0
        3600              0     0     0     0     0         0         0         0         0              0              0              0              0       0       0       0       0          0          0          0          0          0           0          0           0     0                  0                  0                   0                   0           0                  0                  0                  0                  0                             0                             0                              0                              0           0

Time = 0.03s

ExecutionTime = 0.277604 s  ClockTime = 1 s

Solving cloud kinematicParticle:
    complete inInternalMesh open0 open1 open2 open3 symmetry0 symmetry1 symmetry2 symmetry3 symmetryPlane0 symmetryPlane1 symmetryPlane2 symmetryPlane3 cyclic0 cyclic1 cyclic2 cyclic3 nonCouple0 nonCouple1 nonCouple2 nonCouple3 backEmpty0 frontEmpty1 backWedge0 frontWedge1 walls slab_on_nonCouple0 slab_on_nonCouple1 wedge_on_nonCouple2 wedge_on_nonCouple3 (processor) (processor)cyclic0 (processor)cyclic1 (processor)cyclic2 (processor)cyclic3 (processor)slab_on_nonCouple0 (processor)slab_on_nonCouple1 (processor)wedge_on_nonCouple2 (processor)wedge_on_nonCouple3 toBeRemoved
           0           5400     0     0     0     0         0         0         0         0              0              0              0              0       0       0       0       0          0          0          0          0          0           0          0           0     0                  0                  0                   0                   0           0                  0                  0                  0                  0                             0                             0                              0                              0           0
         184           4944     0     0     0     0         0         0         0         0              0              0              0              0       0       0       0       0          0          0          0          0         15           0          0          17     0                  0                  0                   0                   0         240                  0                  0                  0                  0                             0                             0                              0                              0           0
         184           5216     0     0     0     0         0         0         0         0              0              0              0              0       0       0       0       0          0          0          0          0          0           0          0           0     0                  0                  0                   0                   0           0                  0                  0                  0                  0                             0                             0                              0                              0           0
         860           4041     0     0     0     0         0         0         0         0              0              0              0              0       0       0       0       0          0          0          0          0         65          60          0         115     0                  0                  0                   0                   0         259                  0                  0                  0                  0                             0                             0                              0                              0           0
         860           4540     0     0     0     0         0         0         0         0              0              0              0              0       0       0       0       0          0          0          0          0          0           0          0           0     0                  0                  0                   0                   0           0                  0                  0                  0                  0                             0                             0                              0                              0           0
        3000           2146     0     0     0     0         0         0         0         0              0              0              0              0       0       0       0       0          0          0          0          0         19          78          0          20     0                  0                  0                   0                   0         137                  0                  0                  0                  0                             0                             0                              0                              0           0
        3000           2400     0     0     0     0         0         0         0         0              0              0              0              0       0       0       0       0          0          0          0          0          0           0          0           0     0                  0                  0                   0                   0           0                  0                  0                  0                  0                             0                             0                              0                              0           0
        4812            568     0     0     0     0         0         0         0         0              0              0              0              0       0       0       0       0          0          0          0          0          0           0          0           0     0                  0                  0                   0                   0          20                  0                  0                  0                  0                             0                             0                              0                              0           0
        4812            588     0     0     0     0         0         0         0         0              0              0              0              0       0       0       0       0          0          0          0          0          0           0          0           0     0                  0                  0                   0                   0           0                  0                  0                  0                  0                             0                             0                              0                              0           0
        5369             31     0     0     0     0         0         0         0         0              0              0              0              0       0       0       0       0          0          0          0          0          0           0          0           0     0                  0                  0                   0                   0           0                  0                  0                  0                  0                             0                             0                              0                              0           0
        5369             31     0     0     0     0         0         0         0         0              0              0              0              0       0       0       0       0          0          0          0          0          0           0          0           0     0                  0                  0                   0                   0           0                  0                  0                  0                  0                             0                             0                              0                              0           0
        5400              0     0     0     0     0         0         0         0         0              0              0              0              0       0       0       0       0          0          0          0          0          0           0          0           0     0                  0                  0                   0                   0           0                  0                  0                  0                  0                             0                             0                              0                              0           0
        5400              0     0     0     0     0         0         0         0         0              0              0              0              0       0       0       0       0          0          0          0          0          0           0          0           0     0                  0                  0                   0                   0           0                  0                  0                  0                  0                             0                             0                              0                              0           0

Time = 0.04s

ExecutionTime = 0.312319 s  ClockTime = 1 s

Solving cloud kinematicParticle:
    complete inInternalMesh open0 open1 open2 open3 symmetry0 symmetry1 symmetry2 symmetry3 symmetryPlane0 symmetryPlane1 symmetryPlane2 symmetryPlane3 cyclic0 cyclic1 cyclic2 cyclic3 nonCouple0 nonCouple1 nonCouple2 nonCouple3 backEmpty0 frontEmpty1 backWedge0 frontWedge1 walls slab_on_nonCouple0 slab_on_nonCouple1 wedge_on_nonCouple2 wedge_on_nonCouple3 (processor) (processor)cyclic0 (processor)cyclic1 (processor)cyclic2 (processor)cyclic3 (processor)slab_on_nonCouple0 (processor)slab_on_nonCouple1 (processor)wedge_on_nonCouple2 (processor)wedge_on_nonCouple3 toBeRemoved
           0           7200     0     0     0     0         0         0         0         0              0              0              0              0       0       0       0       0          0          0          0          0          0           0          0           0     0                  0                  0                   0                   0           0                  0                  0                  0                  0                             0                             0                              0                              0           0
         188           6603     0     0     0     0         0         0         0         0              0              0              0              0       0       0       0       0          0          0          0          0         18           1          0          64     0                  0                  0                   0                   0         326                  0                  0                  0                  0                             0                             0                              0                              0           0
         188           7012     0     0     0     0         0         0         0         0              0              0              0              0       0       0       0       0          0          0          0          0          0           0          0           0     0                  0                  0                   0                   0           0                  0                  0                  0                  0                             0                             0                              0                              0           0
         889           5652     0     0     0     0         0         0         0         0              0              0              0              0       0       0       0       0          0          0          0          0         70         122          0         117     0                  0                  0                   0                   0         350                  0                  0                  0                  0                             0                             0                              0                              0           0
         889           6311     0     0     0     0         0         0         0         0              0              0              0              0       0       0       0       0          0          0          0          0          0           0          0           0     0                  0                  0                   0                   0           0                  0                  0                  0                  0                             0                             0                              0                              0           0
        3672           3130     0     0     0     0         0         0         0         0              0              0              0              0       0       0       0       0          0          0          0          0         49          97          0          16     0                  0                  0                   0                   0         236                  0                  0                  0                  0                             0                             0                              0                              0           0
        3672           3528     0     0     0     0         0         0         0         0              0              0              0              0       0       0       0       0          0          0          0          0          0           0          0           0     0                  0                  0                   0                   0           0                  0                  0                  0                  0                             0                             0                              0                              0           0
        6368            791     0     0     0     0         0         0         0         0              0              0              0              0       0       0       0       0          0          0          0          0          0           1          0           0     0                  0                  0                   0                   0          40                  0                  0                  0                  0                             0                             0                              0                              0           0
        6368            832     0     0     0     0         0         0         0         0              0              0              0              0       0       0       0       0          0          0          0          0          0           0          0           0     0                  0                  0                   0                   0           0                  0                  0                  0                  0                             0                             0                              0                              0           0
        7155             45     0     0     0     0         0         0         0         0              0              0              0              0       0       0       0       0          0          0          0          0          0           0          0           0     0                  0                  0                   0                   0           0                  0                  0                  0                  0                             0                             0                              0                              0           0
        7155             45     0     0     0     0         0         0         0         0              0              0              0              0       0       0       0       0          0          0          0          0          0           0          0           0     0                  0                  0                   0                   0           0                  0                  0                  0                  0                             0                             0                              0                              0           0
        7200              0     0     0     0     0         0         0         0         0              0              0              0              0       0       0       0       0          0          0          0          0          0           0          0           0     0                  0                  0                   0                   0           0                  0                  0                  0                  0                             0                             0                              0                              0           0
        7200              0     0     0     0     0         0         0         0         0              0              0              0              0       0       0       0       0          0          0          0          0          0           0          0           0     0                  0                  0                   0                   0           0                  0                  0                  0                  0                             0                             0                              0                              0           0

Time = 0.05s

ExecutionTime = 0.35862 s  ClockTime = 1 s

Solving cloud kinematicParticle:
    complete inInternalMesh open0 open1 open2 open3 symmetry0 symmetry1 symmetry2 symmetry3 symmetryPlane0 symmetryPlane1 symmetryPlane2 symmetryPlane3 cyclic0 cyclic1 cyclic2 cyclic3 nonCouple0 nonCouple1 nonCouple2 nonCouple3 backEmpty0 frontEmpty1 backWedge0 frontWedge1 walls slab_on_nonCouple0 slab_on_nonCouple1 wedge_on_nonCouple2 wedge_on_nonCouple3 (processor) (processor)cyclic0 (processor)cyclic1 (processor)cyclic2 (processor)cyclic3 (processor)slab_on_nonCouple0 (processor)slab_on_nonCouple1 (processor)wedge_on_nonCouple2 (processor)wedge_on_nonCouple3 toBeRemoved
           0           9000     0     0     0     0         0         0         0         0              0              0              0              0       0       0       0       0          0          0          0          0          0           0          0           0     0                  0                  0                   0                   0           0                  0                  0                  0                  0                             0                             0                              0                              0           0
         174           8361     0     0     0     0         0         0         0         0              0              0              0              0       0       0       0       0          0          0          0          0         28           1          0          62     0                  0                  0                   0                   0         374                  0                  0                  0                  0                             0                             0                              0                              0           0
         174           8826     0     0     0     0         0         0         0         0              0              0              0              0       0       0       0       0          0          0          0          0          0           0          0           0     0                  0                  0                   0                   0           0                  0                  0                  0                  0                             0                             0                              0                              0           0
         903           7354     0     0     0     0         0         0         0         0              0              0              0              0       0       0       0       0          0          0          0          0        131         119          0         129     0                  0                  0                   0                   0         364                  0                  0                  0                  0                             0                             0                              0                              0           0
         903           8097     0     0     0     0         0         0         0         0              0              0              0              0       0       0       0       0          0          0          0          0          0           0          0           0     0                  0                  0                   0                   0           0                  0                  0                  0                  0                             0                             0                              0                              0           0
        4463           4049     0     0     0     0         0         0         0         0              0              0              0              0       0       0       0       0          0          0          0          0         63          96          0          84     0                  0                  0                   0                   0         245                  0                  0                  0                  0                             0                             0                              0                              0           0
        4463           4537     0     0     0     0         0         0         0         0              0              0              0              0       0       0       0       0          0          0          0          0          0           0          0           0     0                  0                  0                   0                   0           0                  0                  0                  0                  0                             0                             0                              0                              0           0
        7992            939     0     0     0     0         0         0         0         0              0              0              0              0       0       0       0       0          0          0          0          0          0           0          0           6     0                  0                  0                   0                   0          63                  0                  0                  0                  0                             0                             0                              0                              0           0
        7992           1008     0     0     0     0         0         0         0         0              0              0              0              0       0       0       0       0          0          0          0          0          0           0          0           0     0                  0                  0                   0                   0           0                  0                  0                  0                  0                             0                             0                              0                              0           0
        8950             50     0     0     0     0         0         0         0         0              0              0              0              0       0       0       0       0          0          0          0          0          0           0          0           0     0                  0                  0                   0                   0           0                  0                  0                  0                  0                             0                             0                              0                              0           0
        8950             50     0     0     0     0         0         0         0         0              0              0              0              0       0       0       0       0          0          0          0          0          0           0          0           0     0                  0                  0                   0                   0           0                  0                  0                  0                  0                             0                             0                              0                              0           0
        9000              0     0     0     0     0         0         0         0         0              0              0              0              0       0       0       0       0          0          0          0          0          0           0          0           0     0                  0                  0                   0                   0           0                  0                  0                  0                  0                             0                             0                              0                              0           0
        9000              0     0     0     0     0         0         0         0         0              0              0              0              0       0       0       0       0          0          0          0          0          0           0          0           0     0                  0                  0                   0                   0           0                  0                  0                  0                  0                             0                             0                              0                              0           0

Time = 0.06s

ExecutionTime = 0.403571 s  ClockTime = 1 s

Solving cloud kinematicParticle:
    complete inInternalMesh open0 open1 open2 open3 symmetry0 symmetry1 symmetry2 symmetry3 symmetryPlane0 symmetryPlane1 symmetryPlane2 symmetryPlane3 cyclic0 cyclic1 cyclic2 cyclic3 nonCouple0 nonCouple1 nonCouple2 nonCouple3 backEmpty0 frontEmpty1 backWedge0 frontWedge1 walls slab_on_nonCouple0 slab_on_nonCouple1 wedge_on_nonCouple2 wedge_on_nonCouple3 (processor) (processor)cyclic0 (processor)cyclic1 (processor)cyclic2 (processor)cyclic3 (processor)slab_on_nonCouple0 (processor)slab_on_nonCouple1 (processor)wedge_on_nonCouple2 (processor)wedge_on_nonCouple3 toBeRemoved
           0          10800     0     0     0     0         0         0         0         0              0              0              0              0       0       0       0       0          0          0          0          0          0           0          0           0     0                  0                  0                   0                   0           0                  0                  0                  0                  0                             0                             0                              0                              0           0
         186           9886     0     0     0     0         0         0         0         0              0              0              0              0       0       0       0       0          0          0          0          0         34          41          0          61     0                  0                  0                   0                   0         592                  0                  0                  0                  0                             0                             0                              0                              0           0
         186          10614     0     0     0     0         0         0         0         0              0              0              0              0       0       0       0       0          0          0          0          0          0           0          0           0     0                  0                  0                   0                   0           0                  0                  0                  0                  0                             0                             0                              0                              0           0
         929           8797     0     0     0     0         0         0         0         0              0              0              0              0       0       0       0       0          0          0          0          0         86         161          0         141     0                  0                  0                   0                   0         686                  0                  0                  0                  0                             0                             0                              0                              0           0
         929           9871     0     0     0     0         0         0         0         0              0              0              0              0       0       0       0       0          0          0          0          0          0           0          0           0     0                  0                  0                   0                   0           0                  0                  0                  0                  0                             0                             0                              0                              0           0
        5184           4971     0     0     0     0         0         0         0         0              0              0              0              0       0       0       0       0          0          0          0          0         87         115          0          94     0                  0                  0                   0                   0         349                  0                  0                  0                  0                             0                             0                              0                              0           0
        5184           5616     0     0     0     0         0         0         0         0              0              0              0              0       0       0       0       0          0          0          0          0          0           0          0           0     0                  0                  0                   0                   0           0                  0                  0                  0                  0                             0                             0                              0                              0           0
        9588           1125     0     0     0     0         0         0         0         0              0              0              0              0       0       0       0       0          0          0          0          0          0           1          0           1     0                  0                  0                   0                   0          85                  0                  0                  0                  0                             0                             0                              0                              0           0
        9588           1212     0     0     0     0         0         0         0         0              0              0              0              0       0       0       0       0          0          0          0          0          0           0          0           0     0                  0                  0                   0                   0           0                  0                  0                  0                  0                             0                             0                              0                              0           0
       10665            135     0     0     0     0         0         0         0         0              0              0              0              0       0       0       0       0          0          0          0          0          0           0          0           0     0                  0                  0                   0                   0           0                  0                  0                  0                  0                             0                             0                              0                              0           0
       10665            135     0     0     0     0         0         0         0         0              0              0              0              0       0       0       0       0          0          0          0          0          0           0          0           0     0                  0                  0                   0                   0           0                  0                  0                  0                  0                             0                             0                              0                              0           0
       10800              0     0     0     0     0         0         0         0         0              0              0              0              0       0       0       0       0          0          0          0          0          0           0          0           0     0                  0                  0                   0                   0           0                  0                  0                  0                  0                             0                             0                              0                              0           0
       10800              0     0     0     0     0         0         0         0         0              0              0              0              0       0       0       0       0          0          0          0          0          0           0          0           0     0                  0                  0                   0                   0           0                  0                  0                  0                  0                             0                             0                              0                              0           0

Time = 0.07s

ExecutionTime = 0.44588 s  ClockTime = 1 s

Solving cloud kinematicParticle:
    complete inInternalMesh open0 open1 open2 open3 symmetry0 symmetry1 symmetry2 symmetry3 symmetryPlane0 symmetryPlane1 symmetryPlane2 symmetryPlane3 cyclic0 cyclic1 cyclic2 cyclic3 nonCouple0 nonCouple1 nonCouple2 nonCouple3 backEmpty0 frontEmpty1 backWedge0 frontWedge1 walls slab_on_nonCouple0 slab_on_nonCouple1 wedge_on_nonCouple2 wedge_on_nonCouple3 (processor) (processor)cyclic0 (processor)cyclic1 (processor)cyclic2 (processor)cyclic3 (processor)slab_on_nonCouple0 (processor)slab_on_nonCouple1 (processor)wedge_on_nonCouple2 (processor)wedge_on_nonCouple3 toBeRemoved
           0          12600     0     0     0     0         0         0         0         0              0              0              0              0       0       0       0       0          0          0          0          0          0           0          0           0     0                  0                  0                   0                   0           0                  0                  0                  0                  0                             0                             0                              0                              0           0
         181          11607     0    15     0     0         0         0         0         0              0              0              0              0       0       0       0       0          0          0          0          0         36          35          0          68     0                  0                  0                   0                   0         658                  0                  0                  0                  0                             0                             0                              0                              0           0
         181          12419     0     0     0     0         0         0         0         0              0              0              0              0       0       0       0       0          0          0          0          0          0           0          0           0     0                  0                  0                   0                   0           0                  0                  0                  0                  0                             0                             0                              0                              0           0
         932          10512     0    35     0     0         0         0         0         0              0              0              0              0       0       0       0       0          0          0          0          0        171         153          0         133     0                  0                  0                   0                   0         664                  0                  0                  0                  0                             0                             0                              0                              0           0
         932          11668     0     0     0     0         0         0         0         0              0              0              0              0       0       0       0       0          0          0          0          0          0           0          0           0     0                  0                  0                   0                   0           0                  0                  0                  0                  0                             0                             0                              0                              0           0
        5834           5989     0    32     0     0         0         0         0         0              0              0              0              0       0       0       0       0          0          0          0          0        110         120          0         143     0                  0                  0                   0                   0         372                  0                  0                  0                  0                             0                             0                              0                              0           0
        5834           6766     0     0     0     0         0         0         0         0              0              0              0              0       0       0       0       0          0          0          0          0          0           0          0           0     0                  0                  0                   0                   0           0                  0                  0                  0                  0                             0                             0                              0                              0           0
       11197           1281     0     7     0     0         0         0         0         0              0              0              0              0       0       0       0       0          0          0          0          0          0           0          0          23     0                  0                  0                   0                   0          92                  0                  0                  0                  0                             0                             0                              0                              0           0
       11197           1403     0     0     0     0         0         0         0         0              0              0              0              0       0       0       0       0          0          0          0          0          0           0          0           0     0                  0                  0                   0                   0           0                  0                  0                  0                  0                             0                             0                              0                              0           0
       12454            146     0     0     0     0         0         0         0         0              0              0              0              0       0       0       0       0          0          0          0          0          0           0          0           0     0                  0                  0                   0                   0           0                  0                  0                  0                  0                             0                             0                              0                              0           0
       12454            146     0     0     0     0         0         0         0         0              0              0              0              0       0       0       0       0          0          0          0          0          0           0          0           0     0                  0                  0                   0                   0           0                  0                  0                  0                  0                             0                             0                              0                              0           0
       12600              0     0     0     0     0         0         0         0         0              0              0              0              0       0       0       0       0          0          0          0          0          0           0          0           0     0                  0                  0                   0                   0           0                  0                  0                  0                  0                             0                             0                              0                              0           0
       12600              0     0     0     0     0         0         0         0         0              0              0              0              0       0       0       0       0          0          0          0          0          0           0          0           0     0                  0                  0                   0                   0           0                  0                  0                  0                  0                             0                             0                              0                              0           0

Time = 0.08s

ExecutionTime = 0.494011 s  ClockTime = 1 s

Solving cloud kinematicParticle:
    complete inInternalMesh open0 open1 open2 open3 symmetry0 symmetry1 symmetry2 symmetry3 symmetryPlane0 symmetryPlane1 symmetryPlane2 symmetryPlane3 cyclic0 cyclic1 cyclic2 cyclic3 nonCouple0 nonCouple1 nonCouple2 nonCouple3 backEmpty0 frontEmpty1 backWedge0 frontWedge1 walls slab_on_nonCouple0 slab_on_nonCouple1 wedge_on_nonCouple2 wedge_on_nonCouple3 (processor) (processor)cyclic0 (processor)cyclic1 (processor)cyclic2 (processor)cyclic3 (processor)slab_on_nonCouple0 (processor)slab_on_nonCouple1 (processor)wedge_on_nonCouple2 (processor)wedge_on_nonCouple3 toBeRemoved
           0          14400     0     0     0     0         0         0         0         0              0              0              0              0       0       0       0       0          0          0          0          0          0           0          0           0     0                  0                  0                   0                   0           0                  0                  0                  0                  0                             0                             0                              0                              0           0
         163          13163     0    32     0     0         0       112         0         0              0              0              0             22       0       0       0       0          0          0          0         28         30          77          0          74     0                  0                  0                   0                   0         699                  0                  0                  0                  0                             0                             0                              0                              0           0
         163          14237     0     0     0     0         0         0         0         0              0              0              0              0       0       0       0       0          0          0          0          0          0           0          0           0     0                  0                  0                   0                   0           0                  0                  0                  0                  0                             0                             0                              0                              0           0
         925          11962     0    23     0     0         0       121         0         0              0              0              0             29       0       0       0       0          0          0          0         63        152         210          0         148    15                  0                  0                   0                   0         752                  0                  0                  0                  0                             0                             0                              0                              0           0
         925          13475     0     0     0     0         0         0         0         0              0              0              0              0       0       0       0       0          0          0          0          0          0           0          0           0     0                  0                  0                   0                   0           0                  0                  0                  0                  0                             0                             0                              0                              0           0
        6595           6744     0    32     0     0         0       101         0         0              0              0              0             35       0       0       0       0          0          0          0         30        113         128          0         156    36                  0                  0                   0                   0         430                  0                  0                  0                  0                             0                             0                              0                              0           0
        6595           7805     0     0     0     0         0         0         0         0              0              0              0              0       0       0       0       0          0          0          0          0          0           0          0           0     0                  0                  0                   0                   0           0                  0                  0                  0                  0                             0                             0                              0                              0           0
       12822           1460     0     7     0     0         0         0         0         0              0              0              0              0       0       0       0       0          0          0          0          0          0           0          0          27     0                  0                  0                   0                   0          84                  0                  0                  0                  0                             0                             0                              0                              0           0
       12822           1578     0     0     0     0         0         0         0         0              0              0              0              0       0       0       0       0          0          0          0          0          0           0          0           0     0                  0                  0                   0                   0           0                  0                  0                  0                  0                             0                             0                              0                              0           0
       14229            171     0     0     0     0         0         0         0         0              0              0              0              0       0       0       0       0          0          0          0          0          0           0          0           0     0                  0                  0                   0                   0           0                  0                  0                  0                  0                             0                             0                              0                              0           0
       14229            171     0     0     0     0         0         0         0         0              0              0              0              0       0       0       0       0          0          0          0          0          0           0          0           0     0                  0                  0                   0                   0           0                  0                  0                  0                  0                             0                             0                              0                              0           0
       14400              0     0     0     0     0         0         0         0         0              0              0              0              0       0       0       0       0          0          0          0          0          0           0          0           0     0                  0                  0                   0                   0           0                  0                  0                  0                  0                             0                             0                              0                              0           0
       14400              0     0     0     0     0         0         0         0         0              0              0              0              0       0       0       0       0          0          0          0          0          0           0          0           0     0                  0                  0                   0                   0           0                  0                  0                  0                  0                             0                             0                              0                              0           0

Time = 0.09s

ExecutionTime = 0.54064 s  ClockTime = 1 s

Solving cloud kinematicParticle:
    complete inInternalMesh open0 open1 open2 open3 symmetry0 symmetry1 symmetry2 symmetry3 symmetryPlane0 symmetryPlane1 symmetryPlane2 symmetryPlane3 cyclic0 cyclic1 cyclic2 cyclic3 nonCouple0 nonCouple1 nonCouple2 nonCouple3 backEmpty0 frontEmpty1 backWedge0 frontWedge1 walls slab_on_nonCouple0 slab_on_nonCouple1 wedge_on_nonCouple2 wedge_on_nonCouple3 (processor) (processor)cyclic0 (processor)cyclic1 (processor)cyclic2 (processor)cyclic3 (processor)slab_on_nonCouple0 (processor)slab_on_nonCouple1 (processor)wedge_on_nonCouple2 (processor)wedge_on_nonCouple3 toBeRemoved
           0          16192     0     0     0     0         0         0         0         0              0              0              0              0       0       0       0       0          0          0          0          0          0           0          0           0     0                  0                  0                   0                   0           0                  0                  0                  0                  0                             0                             0                              0                              0           0
         202          14618     0    28     0    91         0       174         0         0              0             17              0             41       0       0       0       0          0         24          0         42         60          67          0          77    49                  0                  0                   0                   0         702                  0                  0                  0                  0                             0                             0                              0                              0           0
         202          15990     0     0     0     0         0         0         0         0              0              0              0              0       0       0       0       0          0          0          0          0          0           0          0           0     0                  0                  0                   0                   0           0                  0                  0                  0                  0                             0                             0                              0                              0           0
         959          13191     0    26     0   181         0       179         0         7              0             50              0             37       0       0       0       0          0         45          0         51        221         192          0         146    19                  0                  0                   0                   0         888                  0                  0                  0                  0                             0                             0                              0                              0           0
         959          15233     0     0     0     0         0         0         0         0              0              0              0              0       0       0       0       0          0          0          0          0          0           0          0           0     0                  0                  0                   0                   0           0                  0                  0                  0                  0                             0                             0                              0                              0           0
        7401           7496     0    31     0    32         0       107         0         5              0             12              0             24       0       0       0       0          0         10          0         28        132         122          0         197    33                  0                  0                   0                   0         562                  0                  0                  0                  0                             0                             0                              0                              0           0
        7401           8791     0     0     0     0         0         0         0         0              0              0              0              0       0       0       0       0          0          0          0          0          0           0          0           0     0                  0                  0                   0                   0           0                  0                  0                  0                  0                             0                             0                              0                              0           0
       14199           1811     0    10     0     0         0         0         0         0              0              0              0              0       0       0       0       0          0          0          0          0          0           0          0          31     0                  0                  0                   0                   0         141                  0                  0                  0                  0                             0                             0                              0                              0           0
       14199           1993     0     0     0     0         0         0         0         0              0              0              0              0       0       0       0       0          0          0          0          0          0           0          0           0     0                  0                  0                   0                   0           0                  0                  0                  0                  0                             0                             0                              0                              0           0
       15962            230     0     0     0     0         0         0         0         0              0              0              0              0       0       0       0       0          0          0          0          0          0           0          0           0     0                  0                  0                   0                   0           0                  0                  0                  0                  0                             0                             0                              0                              0           0
       15962            230     0     0     0     0         0         0         0         0              0              0              0              0       0       0       0       0          0          0          0          0          0           0          0           0     0                  0                  0                   0                   0           0                  0                  0                  0                  0                             0                             0                              0                              0           0
       16192              0     0     0     0     0         0         0         0         0              0              0              0              0       0       0       0       0          0          0          0          0          0           0          0           0     0                  0                  0                   0                   0           0                  0                  0                  0                  0                             0                             0                              0                              0           0
       16192              0     0     0     0     0         0         0         0         0              0              0              0              0       0       0       0       0          0          0          0          0          0           0          0           0     0                  0                  0                   0                   0           0                  0                  0                  0                  0                             0                             0                              0                              0           0

Time = 0.1s

[...]
       26423           4566     0    20     0     0         0        12         0         0              0              0              2              0       0       0       0       0          0          1          0          0          0           0          0          27     0                  0                  0                   0                   0         259                  0                  0                  0                  0                             0                             0                              0                              0           0
       26423           4887     0     0     0     0         0         0         0         0              0              0              0              0       0       0       0       0          0          0          0          0          0           0          0           0     0                  0                  0                   0                   0           0                  0                  0                  0                  0                             0                             0                              0                              0           0
       30913            397     0     0     0     0         0         0         0         0              0              0              0              0       0       0       0       0          0          0          0          0          0           0          0           0     0                  0                  0                   0                   0           0                  0                  0                  0                  0                             0                             0                              0                              0           0
       30913            397     0     0     0     0         0         0         0         0              0              0              0              0       0       0       0       0          0          0          0          0          0           0          0           0     0                  0                  0                   0                   0           0                  0                  0                  0                  0                             0                             0                              0                              0           0
       31310              0     0     0     0     0         0         0         0         0              0              0              0              0       0       0       0       0          0          0          0          0          0           0          0           0     0                  0                  0                   0                   0           0                  0                  0                  0                  0                             0                             0                              0                              0           0
       31310              0     0     0     0     0         0         0         0         0              0              0              0              0       0       0       0       0          0          0          0          0          0           0          0           0     0                  0                  0                   0                   0           0                  0                  0                  0                  0                             0                             0                              0                              0           0

Time = 0.19s

ExecutionTime = 1.18818 s  ClockTime = 2 s

Solving cloud kinematicParticle:
    complete inInternalMesh open0 open1 open2 open3 symmetry0 symmetry1 symmetry2 symmetry3 symmetryPlane0 symmetryPlane1 symmetryPlane2 symmetryPlane3 cyclic0 cyclic1 cyclic2 cyclic3 nonCouple0 nonCouple1 nonCouple2 nonCouple3 backEmpty0 frontEmpty1 backWedge0 frontWedge1 walls slab_on_nonCouple0 slab_on_nonCouple1 wedge_on_nonCouple2 wedge_on_nonCouple3 (processor) (processor)cyclic0 (processor)cyclic1 (processor)cyclic2 (processor)cyclic3 (processor)slab_on_nonCouple0 (processor)slab_on_nonCouple1 (processor)wedge_on_nonCouple2 (processor)wedge_on_nonCouple3 toBeRemoved
           0          33110     0     0     0     0         0         0         0         0              0              0              0              0       0       0       0       0          0          0          0          0          0           0          0           0     0                  0                  0                   0                   0           0                  0                  0                  0                  0                             0                             0                              0                              0           0
         180          29743     0   105     0   256        91       326         0        43             58             49              2             32       0       0       0       0          0        241          0         52         82          76          0         197    80                  0                  0                   0                   0        1497                  0                  0                  0                  0                             0                             0                              0                              0           0
         180          32791     0     0     0     0         0         0         0         0              0              0              0              0       0       0       0       0          0          0          0          0          0           0          0           0     0                  0                  0                   0                   0           0                  0                  0                  0                  0                             0                             0                              0                              0           0
        1239          28182     0   107     0   181        84       312         0        48             46             34             42             42       0       0       0       0          0        222          0         43        208         268          0         263    71                  0                  0                   0                   0        1579                  0                  0                  0                  0                             0                             0                              0                              0           0
        1239          31676     0     0     0     0         0         0         0         0              0              0              0              0       0       0       0       0          0          0          0          0          0           0          0           0     0                  0                  0                   0                   0           0                  0                  0                  0                  0                             0                             0                              0                              0           0
       14312          16569     0    55     0    49        48       185         0         5              0             12             47             32       0       0       0       0          0         31          0         37        118         158          0         218    86                  0                  0                   0                   0         953                  0                  0                  0                  0                             0                             0                              0                              0           0
       14312          18600     0     0     0     0         0         0         0         0              0              0              0              0       0       0       0       0          0          0          0          0          0           0          0           0     0                  0                  0                   0                   0           0                  0                  0                  0                  0                             0                             0                              0                              0           0
       28024           4528     0    14     0     0         0        10         0         0              0              0              0              0       0       0       0       0          0          0          0          0          0           1          0          37     0                  0                  0                   0                   0         298                  0                  0                  0                  0                             0                             0                              0                              0           0
       28024           4888     0     0     0     0         0         0         0         0              0              0              0              0       0       0       0       0          0          0          0          0          0           0          0           0     0                  0                  0                   0                   0           0                  0                  0                  0                  0                             0                             0                              0                              0           0
       32559            353     0     0     0     0         0         0         0         0              0              0              0              0       0       0       0       0          0          0          0          0          0           0          0           0     0                  0                  0                   0                   0           0                  0                  0                  0                  0                             0                             0                              0                              0           0
       32559            353     0     0     0     0         0         0         0         0              0              0              0              0       0       0       0       0          0          0          0          0          0           0          0           0     0                  0                  0                   0                   0           0                  0                  0                  0                  0                             0                             0                              0                              0           0
       32912              0     0     0     0     0         0         0         0         0              0              0              0              0       0       0       0       0          0          0          0          0          0           0          0           0     0                  0                  0                   0                   0           0                  0                  0                  0                  0                             0                             0                              0                              0           0
       32912              0     0     0     0     0         0         0         0         0              0              0              0              0       0       0       0       0          0          0          0          0          0           0          0           0     0                  0                  0                   0                   0           0                  0                  0                  0                  0                             0                             0                              0                              0           0

Time = 0.2s

ExecutionTime = 1.26929 s  ClockTime = 2 s

Solving cloud kinematicParticle:
    complete inInternalMesh open0 open1 open2 open3 symmetry0 symmetry1 symmetry2 symmetry3 symmetryPlane0 symmetryPlane1 symmetryPlane2 symmetryPlane3 cyclic0 cyclic1 cyclic2 cyclic3 nonCouple0 nonCouple1 nonCouple2 nonCouple3 backEmpty0 frontEmpty1 backWedge0 frontWedge1 walls slab_on_nonCouple0 slab_on_nonCouple1 wedge_on_nonCouple2 wedge_on_nonCouple3 (processor) (processor)cyclic0 (processor)cyclic1 (processor)cyclic2 (processor)cyclic3 (processor)slab_on_nonCouple0 (processor)slab_on_nonCouple1 (processor)wedge_on_nonCouple2 (processor)wedge_on_nonCouple3 toBeRemoved
           0          34712     0     0     0     0         0         0         0         0              0              0              0              0       0       0       0       0          0          0          0          0          0           0          0           0     0                  0                  0                   0                   0           0                  0                  0                  0                  0                             0                             0                              0                              0           0
         205          31380     0   125    27   259        89       299         0        52             41             49              6             29       0       0       0       0          0        225          0         50         69          79          0         200    82                  0                  0                   0                   0        1446                  0                  0                  0                  0                             0                             0                              0                              0           0
         205          34357     0     0     0     0         0         0         0         0              0              0              0              0       0       0       0       0          0          0          0          0          0           0          0           0     0                  0                  0                   0                   0           0                  0                  0                  0                  0                             0                             0                              0                              0           0
        1262          29516     0   107    14   184       124       318         0        44             68             47             49             44       0       0       0       0          0        238          0         55        235         260          0         240   158                  0                  0                   0                   0        1599                  0                  0                  0                  0                             0                             0                              0                              0           0
        1262          33243     0     0     0     0         0         0         0         0              0              0              0              0       0       0       0       0          0          0          0          0          0           0          0           0     0                  0                  0                   0                   0           0                  0                  0                  0                  0                             0                             0                              0                              0           0
       15237          17178     0    63    26    39        33       186        30         8              0             12             49             24       0       0       0       0          0         33          0         41        117         169          0         217   114                  0                  0                   0                   0         929                  0                  0                  0                  0                             0                             0                              0                              0           0
       15237          19261     0     0     0     0         0         0         0         0              0              0              0              0       0       0       0       0          0          0          0          0          0           0          0           0     0                  0                  0                   0                   0           0                  0                  0                  0                  0                             0                             0                              0                              0           0
       29500           4620     0    19     0     0         0        11         0         0              0              0              0              0       0       0       0       0          0          0          0          0          0           0          0          33     0                  0                  0                   0                   0         315                  0                  0                  0                  0                             0                             0                              0                              0           0
       29500           4998     0     0     0     0         0         0         0         0              0              0              0              0       0       0       0       0          0          0          0          0          0           0          0           0     0                  0                  0                   0                   0           0                  0                  0                  0                  0                             0                             0                              0                              0           0
       34119            379     0     0     0     0         0         0         0         0              0              0              0              0       0       0       0       0          0          0          0          0          0           0          0           0     0                  0                  0                   0                   0           0                  0                  0                  0                  0                             0                             0                              0                              0           0
       34119            379     0     0     0     0         0         0         0         0              0              0              0              0       0       0       0       0          0          0          0          0          0           0          0           0     0                  0                  0                   0                   0           0                  0                  0                  0                  0                             0                             0                              0                              0           0
       34498              0     0     0     0     0         0         0         0         0              0              0              0              0       0       0       0       0          0          0          0          0          0           0          0           0     0                  0                  0                   0                   0           0                  0                  0                  0                  0                             0                             0                              0                              0           0
       34498              0     0     0     0     0         0         0         0         0              0              0              0              0       0       0       0       0          0          0          0          0          0           0          0           0     0                  0                  0                   0                   0           0                  0                  0                  0                  0                             0                             0                              0                              0           0

End

Finalising parallel run
