/*---------------------------------------------------------------------------*\
| =========                 |                                                 |
| \\      /  F ield         | OpenFOAM: The Open Source CFD Toolbox           |
|  \\    /   O peration     | Version:  2412                                  |
|   \\  /    A nd           | Website:  www.openfoam.com                      |
|    \\/     M anipulation  |                                                 |
\*---------------------------------------------------------------------------*/
Build  : _8dbc61e11c-20241220 OPENFOAM=2412 version=v2412
Arch   : "LSB;label=64;scalar=64"
Exec   : foamToEnsight -parallel
Date   : Jun 23 2026
Time   : 11:13:42
Host   : kol-serv
PID    : 860174
I/O    : uncollated
Case   : /home/kol/OpenFOAM/OpenFOAM-12/test/fvMeshTools/cavity
nProcs : 3
Hosts  :
(
    (kol-serv 3)
)
Pstream initialized with:
    floatTransfer      : false
    maxCommsSize       : 0
    nProcsSimpleSum    : 0
    nonBlockingExchange: 0 (tuning: 0)
    exchange algorithm : 0
    commsType          : nonBlocking
    polling iterations : 0
trapFpe: Floating point exception trapping enabled (FOAM_SIGFPE).
fileModificationChecking : Monitoring run-time modified files using timeStampMaster (fileModificationSkew 5, maxFileModificationPolls 20)
allowSystemOperations : Allowing user-supplied system call operations

// * * * * * * * * * * * * * * * * * * * * * * * * * * * * * * * * * * * * * //
internal: true
cellZones: true
boundary: true
faceZones: false
Create time

Initial memory 424280 kB
Create mesh for time = 0

Converting 1 time steps
Search for lagrangian ... none detected.
Startup in 0.01 s, 424412 kB

Time [0] = 0
    volume field ( p U )
    point  field ( pointDisplacement )
Wrote in 0 s, 424544 kB


End: 0.01 s, 655552 kB (peak)

Finalising parallel run
