/*---------------------------------------------------------------------------*\
  =========                 |
  \\      /  F ield         | OpenFOAM: The Open Source CFD Toolbox
   \\    /   O peration     | Website:  https://openfoam.org
    \\  /    A nd           | Version:  12
     \\/     M anipulation  |
\*---------------------------------------------------------------------------*/
Build  : 12-0b487fc98b88
Exec   : Test-fvMeshTools
Date   : Jun 23 2026
Time   : 23:47:40
Host   : "kol-serv"
PID    : 1805680
I/O    : uncollated
Case   : /home/kol/OpenFOAM/OpenFOAM-12/test/fvMeshTools/cavity
nProcs : 1
sigFpe : Enabling floating point exception trapping (FOAM_SIGFPE).
fileModificationChecking : Monitoring run-time modified files using timeStampMaster (fileModificationSkew 10)
allowSystemOperations : Allowing user-supplied system call operations

// * * * * * * * * * * * * * * * * * * * * * * * * * * * * * * * * * * * * * //
Create time

Create mesh for time = 0

Reading geometric fields

Reading volScalarField p
Reading volVectorField U
Reading pointVectorField pointDisplacement
Inserted patch myWall type wall at index 4
Writing mesh with added patch to 0.005
Removing patch zeroSizedPatch
Writing mesh with removed patch to 0.01
End

