

--> FOAM FATAL IO ERROR: (openfoam-2412)
Illegal dictionary entry or environment variable name !active/value.air
Known dictionary entries: 2(type value)


file: testDict/inactive at line 28.

    From bool Foam::primitiveEntry::expandVariable(const Foam::string&, const Foam::dictionary&)
    in file db/dictionary/primitiveEntry/primitiveEntry.C at line 162.

FOAM exiting

