Invoking wmake libso /home/kol/OpenFOAM/OpenFOAM-12/test/dictionary/dynamicCode/_7ceb44c3a9c5a4ad4318a98ad7d6f19a37b99414
wmake libso /home/kol/OpenFOAM/OpenFOAM-12/test/dictionary/dynamicCode/_7ceb44c3a9c5a4ad4318a98ad7d6f19a37b99414
    ln: ./lnInclude
make[1]: Entering directory '/home/kol/OpenFOAM/OpenFOAM-12/test/dictionary/dynamicCode/_7ceb44c3a9c5a4ad4318a98ad7d6f19a37b99414'
    dep: codeStreamTemplate.C
    Ctoo: codeStreamTemplate.C
codeStreamTemplate.C:31:10: fatal error: dictionary.H: No such file or directory
   31 | #include "dictionary.H"
      |          ^~~~~~~~~~~~~~
compilation terminated.
make[1]: *** [/home/kol/OpenFOAM/OpenFOAM-v2412/wmake/rules/General/transform:38: Make/linux64GccDPInt64Opt/codeStreamTemplate.o] Error 1
make[1]: Target 'libso' not remade because of errors.
make[1]: Leaving directory '/home/kol/OpenFOAM/OpenFOAM-12/test/dictionary/dynamicCode/_7ceb44c3a9c5a4ad4318a98ad7d6f19a37b99414'


--> FOAM FATAL IO ERROR: (openfoam-2412)
Failed wmake "dynamicCode/_7ceb44c3a9c5a4ad4318a98ad7d6f19a37b99414/platforms/linux64GccDPInt64Opt/lib/libcodeStream_7ceb44c3a9c5a4ad4318a98ad7d6f19a37b99414.so"


file: simpleBlockMeshDict at line 10 to 18.

    From static void (* Foam::functionEntries::codeStream::getFunction(const Foam::dictionary&, const Foam::dictionary&))(Foam::Ostream&, const Foam::dictionary&)
    in file db/dictionary/functionEntries/codeStream/codeStream.C at line 188.

FOAM exiting

