/*---------------------------------------------------------------------------*\
  =========                 |
  \\      /  F ield         | OpenFOAM: The Open Source CFD Toolbox
   \\    /   O peration     | Website:  https://openfoam.org
    \\  /    A nd           | Version:  13
     \\/     M anipulation  |
\*---------------------------------------------------------------------------*/
Build  : 13-19a3d5400c8c
Exec   : foamRun
Date   : Jun 23 2026
Time   : 14:25:46
Host   : "kol-serv"
PID    : 1366250
I/O    : uncollated
Case   : /home/kol/OpenFOAM/OpenFOAM-13/test/multiphaseEuler/heatTransferLimitedPhaseChange/waterEvaporation
nProcs : 1
sigFpe : Enabling floating point exception trapping (FOAM_SIGFPE).
fileModificationChecking : Monitoring run-time modified files using timeStampMaster (fileModificationSkew 10)
allowSystemOperations : Allowing user-supplied system call operations

// * * * * * * * * * * * * * * * * * * * * * * * * * * * * * * * * * * * * * //
Create time

Create mesh for time = 0

Selecting solver multiphaseEuler
No MRF models present

Selecting phaseModel for steam: purePhaseModel
Selecting diameterModel for phase steam: none
Selecting thermodynamics package 
{
    type            heRhoThermo;
    mixture         pureMixture;
    transport       const;
    thermo          hConst;
    equationOfState perfectGas;
    specie          specie;
    energy          sensibleEnthalpy;
}

Calculating face flux field phi.steam
Selecting turbulence model type laminar
    Selecting laminar stress model Stokes
Selecting thermophysical transport type laminar
Selecting default laminar thermophysical transport model unityLewisFourier
Selecting phaseModel for water: purePhaseModel
Selecting diameterModel for phase water: constant
Selecting thermodynamics package 
{
    type            heRhoThermo;
    mixture         pureMixture;
    transport       const;
    thermo          eConst;
    equationOfState rhoConst;
    specie          specie;
    energy          sensibleInternalEnergy;
}

Calculating face flux field phi.water
Selecting turbulence model type laminar
    Selecting laminar stress model Stokes
Selecting thermophysical transport type laminar
Selecting default laminar thermophysical transport model unityLewisFourier
Selecting surfaceTensionCoefficientModel for steam_water: constant
Selecting SidedInterfacialModel<heatTransferModel> blending method for steam_water: continuous
Selecting heatTransferModel for water_dispersedIn_steam_inThe_steam: RanzMarshall
Selecting heatTransferModel for water_dispersedIn_steam_inThe_water: spherical
Courant Number mean: 0 max: 0
Creating fvModels from "constant/fvModels"

Selecting finite volume model type heatTransferLimitedPhaseChange
    Name: phaseChange
Selecting saturationTemperatureModel constant

PIMPLE: No convergence criteria found


PIMPLE: No corrector convergence criteria found
        Calculations will do 5 corrections


PIMPLE: Operating solver in transient mode with 5 outer correctors



Starting time loop

Using dynamicCode for coded continuity at line 2 in "/home/kol/OpenFOAM/OpenFOAM-13/test/multiphaseEuler/heatTransferLimitedPhaseChange/waterEvaporation/system/functions/continuity"
volFieldValue plot read:
    number of cells = 1
    volume = 1
    operation = volAverage

Courant Number mean: 0 max: 0
Time = 0.005s

PIMPLE: Iteration 1
heatTransferLimitedPhaseChange: phaseChange
    min/mean/max Tsat = 372.76/372.76/372.76
    min/mean/max mDot = -4.007820183/-4.007820183/-4.007820183
MULES: Solving for alpha.steam
MULES: Solving for alpha.water
MULES: Correcting alpha.steam
MULES: Correcting alpha.water
steam fraction, min, max = 0.99 0.99 0.99
water fraction, min, max = 0.01 0.01 0.01
Phase-sum volume fraction, min, max = 1 1 1
MULES: Solving for alpha.steam
MULES: Solving for alpha.water
MULES: Correcting alpha.steam
MULES: Correcting alpha.water
steam fraction, min, max = 0.99 0.99 0.99
water fraction, min, max = 0.01 0.01 0.01
Phase-sum volume fraction, min, max = 1 1 1
MULES: Solving for alpha.steam
MULES: Solving for alpha.water
MULES: Correcting alpha.steam
MULES: Correcting alpha.water
steam fraction, min, max = 0.99 0.99 0.99
water fraction, min, max = 0.01 0.01 0.01
Phase-sum volume fraction, min, max = 1 1 1
Constructing momentum equations
diagonal:  Solving for h.steam, Initial residual = 0, Final residual = 0, No Iterations 0
diagonal:  Solving for e.water, Initial residual = 0, Final residual = 0, No Iterations 0
steam min/max T 379.8453171 - 379.8453171
water min/max T 379.0925762 - 379.0925762
heatTransferLimitedPhaseChange: phaseChange
    min/mean/max Tsat = 372.76/372.76/372.76
    min/mean/max mDot = -3.507281997/-3.507281997/-3.507281997
diagonal:  Solving for p_rgh, Initial residual = 0, Final residual = 0, No Iterations 0
PIMPLE: Iteration 2
heatTransferLimitedPhaseChange: phaseChange
    min/mean/max Tsat = 372.76/372.76/372.76
    min/mean/max mDot = -3.50728663/-3.50728663/-3.50728663
MULES: Solving for alpha.steam
MULES: Solving for alpha.water
MULES: Correcting alpha.steam
MULES: Correcting alpha.water
steam fraction, min, max = 0.9900056886 0.9900056886 0.9900056886
water fraction, min, max = 0.009994311446 0.009994311446 0.009994311446
Phase-sum volume fraction, min, max = 1 1 1
MULES: Solving for alpha.steam
MULES: Solving for alpha.water
MULES: Correcting alpha.steam
MULES: Correcting alpha.water
steam fraction, min, max = 0.9900113739 0.9900113739 0.9900113739
water fraction, min, max = 0.009988626128 0.009988626128 0.009988626128
Phase-sum volume fraction, min, max = 1 1 1
MULES: Solving for alpha.steam
MULES: Solving for alpha.water
MULES: Correcting alpha.steam
MULES: Correcting alpha.water
steam fraction, min, max = 0.990017056 0.990017056 0.990017056
water fraction, min, max = 0.009982944045 0.009982944045 0.009982944045
Phase-sum volume fraction, min, max = 1 1 1
Constructing momentum equations
diagonal:  Solving for h.steam, Initial residual = 0, Final residual = 0, No Iterations 0
diagonal:  Solving for e.water, Initial residual = 0, Final residual = 0, No Iterations 0
steam min/max T 382.2703148 - 382.2703148
water min/max T 379.0911205 - 379.0911205
heatTransferLimitedPhaseChange: phaseChange
    min/mean/max Tsat = 372.76/372.76/372.76
    min/mean/max mDot = -3.506231641/-3.506231641/-3.506231641
diagonal:  Solving for p_rgh, Initial residual = 0, Final residual = 0, No Iterations 0
PIMPLE: Iteration 3
heatTransferLimitedPhaseChange: phaseChange
    min/mean/max Tsat = 372.76/372.76/372.76
    min/mean/max mDot = -3.506232634/-3.506232634/-3.506232634
MULES: Solving for alpha.steam
MULES: Solving for alpha.water
MULES: Correcting alpha.steam
MULES: Correcting alpha.water
steam fraction, min, max = 0.9900056966 0.9900056966 0.9900056966
water fraction, min, max = 0.009994303438 0.009994303438 0.009994303438
Phase-sum volume fraction, min, max = 1 1 1
MULES: Solving for alpha.steam
MULES: Solving for alpha.water
MULES: Correcting alpha.steam
MULES: Correcting alpha.water
steam fraction, min, max = 0.9900113899 0.9900113899 0.9900113899
water fraction, min, max = 0.009988610122 0.009988610122 0.009988610122
Phase-sum volume fraction, min, max = 1 1 1
MULES: Solving for alpha.steam
MULES: Solving for alpha.water
MULES: Correcting alpha.steam
MULES: Correcting alpha.water
steam fraction, min, max = 0.99001708 0.99001708 0.99001708
water fraction, min, max = 0.009982920048 0.009982920048 0.009982920048
Phase-sum volume fraction, min, max = 1 1 1
Constructing momentum equations
diagonal:  Solving for h.steam, Initial residual = 0, Final residual = 0, No Iterations 0
diagonal:  Solving for e.water, Initial residual = 0, Final residual = 0, No Iterations 0
steam min/max T 382.7966208 - 382.7966208
water min/max T 379.0924819 - 379.0924819
heatTransferLimitedPhaseChange: phaseChange
    min/mean/max Tsat = 372.76/372.76/372.76
    min/mean/max mDot = -3.508216527/-3.508216527/-3.508216527
diagonal:  Solving for p_rgh, Initial residual = 0, Final residual = 0, No Iterations 0
PIMPLE: Iteration 4
heatTransferLimitedPhaseChange: phaseChange
    min/mean/max Tsat = 372.76/372.76/372.76
    min/mean/max mDot = -3.508216746/-3.508216746/-3.508216746
MULES: Solving for alpha.steam
MULES: Solving for alpha.water
MULES: Correcting alpha.steam
MULES: Correcting alpha.water
steam fraction, min, max = 0.9900056998 0.9900056998 0.9900056998
water fraction, min, max = 0.009994300202 0.009994300202 0.009994300202
Phase-sum volume fraction, min, max = 1 1 1
MULES: Solving for alpha.steam
MULES: Solving for alpha.water
MULES: Correcting alpha.steam
MULES: Correcting alpha.water
steam fraction, min, max = 0.9900113963 0.9900113963 0.9900113963
water fraction, min, max = 0.009988603652 0.009988603652 0.009988603652
Phase-sum volume fraction, min, max = 1 1 1
MULES: Solving for alpha.steam
MULES: Solving for alpha.water
MULES: Correcting alpha.steam
MULES: Correcting alpha.water
steam fraction, min, max = 0.9900170897 0.9900170897 0.9900170897
water fraction, min, max = 0.009982910349 0.009982910349 0.009982910349
Phase-sum volume fraction, min, max = 1 1 1
Constructing momentum equations
diagonal:  Solving for h.steam, Initial residual = 0, Final residual = 0, No Iterations 0
diagonal:  Solving for e.water, Initial residual = 0, Final residual = 0, No Iterations 0
steam min/max T 382.912365 - 382.912365
water min/max T 379.0924875 - 379.0924875
heatTransferLimitedPhaseChange: phaseChange
    min/mean/max Tsat = 372.76/372.76/372.76
    min/mean/max mDot = -3.508489831/-3.508489831/-3.508489831
diagonal:  Solving for p_rgh, Initial residual = 0, Final residual = 0, No Iterations 0
PIMPLE: Iteration 5
heatTransferLimitedPhaseChange: phaseChange
    min/mean/max Tsat = 372.76/372.76/372.76
    min/mean/max mDot = -3.508489879/-3.508489879/-3.508489879
MULES: Solving for alpha.steam
MULES: Solving for alpha.water
MULES: Correcting alpha.steam
MULES: Correcting alpha.water
steam fraction, min, max = 0.9900057002 0.9900057002 0.9900057002
water fraction, min, max = 0.009994299752 0.009994299752 0.009994299752
Phase-sum volume fraction, min, max = 1 1 1
MULES: Solving for alpha.steam
MULES: Solving for alpha.water
MULES: Correcting alpha.steam
MULES: Correcting alpha.water
steam fraction, min, max = 0.9900113972 0.9900113972 0.9900113972
water fraction, min, max = 0.009988602754 0.009988602754 0.009988602754
Phase-sum volume fraction, min, max = 1 1 1
MULES: Solving for alpha.steam
MULES: Solving for alpha.water
MULES: Correcting alpha.steam
MULES: Correcting alpha.water
steam fraction, min, max = 0.990017091 0.990017091 0.990017091
water fraction, min, max = 0.009982909003 0.009982909003 0.009982909003
Phase-sum volume fraction, min, max = 1 1 1
Constructing momentum equations
diagonal:  Solving for h.steam, Initial residual = 0, Final residual = 0, No Iterations 0
diagonal:  Solving for e.water, Initial residual = 0, Final residual = 0, No Iterations 0
steam min/max T 382.9376993 - 382.9376993
water min/max T 379.0924887 - 379.0924887
heatTransferLimitedPhaseChange: phaseChange
    min/mean/max Tsat = 372.76/372.76/372.76
    min/mean/max mDot = -3.50854988/-3.50854988/-3.50854988
diagonal:  Solving for p_rgh, Initial residual = 0, Final residual = 0, No Iterations 0
ExecutionTime = 0.173019 s  ClockTime = 0 s

Courant Number mean: 0 max: 0
Time = 0.01s

PIMPLE: Iteration 1
heatTransferLimitedPhaseChange: phaseChange
    min/mean/max Tsat = 372.76/372.76/372.76
    min/mean/max mDot = -3.508549891/-3.508549891/-3.508549891
MULES: Solving for alpha.steam
MULES: Solving for alpha.water
MULES: Correcting alpha.steam
MULES: Correcting alpha.water
steam fraction, min, max = 0.9900227816 0.9900227816 0.9900227816
water fraction, min, max = 0.009977218399 0.009977218399 0.009977218399
Phase-sum volume fraction, min, max = 1 1 1
MULES: Solving for alpha.steam
MULES: Solving for alpha.water
MULES: Correcting alpha.steam
MULES: Correcting alpha.water
steam fraction, min, max = 0.990028469 0.990028469 0.990028469
water fraction, min, max = 0.00997153104 0.00997153104 0.00997153104
Phase-sum volume fraction, min, max = 1 1 1
MULES: Solving for alpha.steam
MULES: Solving for alpha.water
MULES: Correcting alpha.steam
MULES: Correcting alpha.water
steam fraction, min, max = 0.9900341531 0.9900341531 0.9900341531
water fraction, min, max = 0.009965846922 0.009965846922 0.009965846922
Phase-sum volume fraction, min, max = 1 1 1
Constructing momentum equations
diagonal:  Solving for h.steam, Initial residual = 0, Final residual = 0, No Iterations 0
diagonal:  Solving for e.water, Initial residual = 0, Final residual = 0, No Iterations 0
steam min/max T 385.6512301 - 385.6512301
water min/max T 378.2979651 - 378.2979651
heatTransferLimitedPhaseChange: phaseChange
    min/mean/max Tsat = 372.76/372.76/372.76
    min/mean/max mDot = -3.072505364/-3.072505364/-3.072505364
diagonal:  Solving for p_rgh, Initial residual = 0, Final residual = 0, No Iterations 0
PIMPLE: Iteration 2
heatTransferLimitedPhaseChange: phaseChange
    min/mean/max Tsat = 372.76/372.76/372.76
    min/mean/max mDot = -3.072509997/-3.072509997/-3.072509997
MULES: Solving for alpha.steam
MULES: Solving for alpha.water
MULES: Correcting alpha.steam
MULES: Correcting alpha.water
steam fraction, min, max = 0.9900220833 0.9900220833 0.9900220833
water fraction, min, max = 0.00997791675 0.00997791675 0.00997791675
Phase-sum volume fraction, min, max = 1 1 1
MULES: Solving for alpha.steam
MULES: Solving for alpha.water
MULES: Correcting alpha.steam
MULES: Correcting alpha.water
steam fraction, min, max = 0.990027073 0.990027073 0.990027073
water fraction, min, max = 0.009972926993 0.009972926993 0.009972926993
Phase-sum volume fraction, min, max = 1 1 1
MULES: Solving for alpha.steam
MULES: Solving for alpha.water
MULES: Correcting alpha.steam
MULES: Correcting alpha.water
steam fraction, min, max = 0.9900320603 0.9900320603 0.9900320603
water fraction, min, max = 0.009967939731 0.009967939731 0.009967939731
Phase-sum volume fraction, min, max = 1 1 1
Constructing momentum equations
diagonal:  Solving for h.steam, Initial residual = 0, Final residual = 0, No Iterations 0
diagonal:  Solving for e.water, Initial residual = 0, Final residual = 0, No Iterations 0
steam min/max T 385.3373589 - 385.3373589
water min/max T 378.2982215 - 378.2982215
heatTransferLimitedPhaseChange: phaseChange
    min/mean/max Tsat = 372.76/372.76/372.76
    min/mean/max mDot = -3.072555812/-3.072555812/-3.072555812
diagonal:  Solving for p_rgh, Initial residual = 0, Final residual = 0, No Iterations 0
PIMPLE: Iteration 3
heatTransferLimitedPhaseChange: phaseChange
    min/mean/max Tsat = 372.76/372.76/372.76
    min/mean/max mDot = -3.072555696/-3.072555696/-3.072555696
MULES: Solving for alpha.steam
MULES: Solving for alpha.water
MULES: Correcting alpha.steam
MULES: Correcting alpha.water
steam fraction, min, max = 0.9900220823 0.9900220823 0.9900220823
water fraction, min, max = 0.009977917715 0.009977917715 0.009977917715
Phase-sum volume fraction, min, max = 1 1 1
MULES: Solving for alpha.steam
MULES: Solving for alpha.water
MULES: Correcting alpha.steam
MULES: Correcting alpha.water
steam fraction, min, max = 0.9900270711 0.9900270711 0.9900270711
water fraction, min, max = 0.009972928923 0.009972928923 0.009972928923
Phase-sum volume fraction, min, max = 1 1 1
MULES: Solving for alpha.steam
MULES: Solving for alpha.water
MULES: Correcting alpha.steam
MULES: Correcting alpha.water
steam fraction, min, max = 0.9900320574 0.9900320574 0.9900320574
water fraction, min, max = 0.009967942625 0.009967942625 0.009967942625
Phase-sum volume fraction, min, max = 1 1 1
Constructing momentum equations
diagonal:  Solving for h.steam, Initial residual = 0, Final residual = 0, No Iterations 0
diagonal:  Solving for e.water, Initial residual = 0, Final residual = 0, No Iterations 0
steam min/max T 385.2691452 - 385.2691452
water min/max T 378.2980743 - 378.2980743
heatTransferLimitedPhaseChange: phaseChange
    min/mean/max Tsat = 372.76/372.76/372.76
    min/mean/max mDot = -3.072314859/-3.072314859/-3.072314859
diagonal:  Solving for p_rgh, Initial residual = 0, Final residual = 0, No Iterations 0
PIMPLE: Iteration 4
heatTransferLimitedPhaseChange: phaseChange
    min/mean/max Tsat = 372.76/372.76/372.76
    min/mean/max mDot = -3.072314834/-3.072314834/-3.072314834
MULES: Solving for alpha.steam
MULES: Solving for alpha.water
MULES: Correcting alpha.steam
MULES: Correcting alpha.water
steam fraction, min, max = 0.9900220819 0.9900220819 0.9900220819
water fraction, min, max = 0.009977918108 0.009977918108 0.009977918108
Phase-sum volume fraction, min, max = 1 1 1
MULES: Solving for alpha.steam
MULES: Solving for alpha.water
MULES: Correcting alpha.steam
MULES: Correcting alpha.water
steam fraction, min, max = 0.9900270703 0.9900270703 0.9900270703
water fraction, min, max = 0.009972929708 0.009972929708 0.009972929708
Phase-sum volume fraction, min, max = 1 1 1
MULES: Solving for alpha.steam
MULES: Solving for alpha.water
MULES: Correcting alpha.steam
MULES: Correcting alpha.water
steam fraction, min, max = 0.9900320562 0.9900320562 0.9900320562
water fraction, min, max = 0.009967943802 0.009967943802 0.009967943802
Phase-sum volume fraction, min, max = 1 1 1
Constructing momentum equations
diagonal:  Solving for h.steam, Initial residual = 0, Final residual = 0, No Iterations 0
diagonal:  Solving for e.water, Initial residual = 0, Final residual = 0, No Iterations 0
steam min/max T 385.2541569 - 385.2541569
water min/max T 378.2980738 - 378.2980738
heatTransferLimitedPhaseChange: phaseChange
    min/mean/max Tsat = 372.76/372.76/372.76
    min/mean/max mDot = -3.072279524/-3.072279524/-3.072279524
diagonal:  Solving for p_rgh, Initial residual = 0, Final residual = 0, No Iterations 0
PIMPLE: Iteration 5
heatTransferLimitedPhaseChange: phaseChange
    min/mean/max Tsat = 372.76/372.76/372.76
    min/mean/max mDot = -3.072279519/-3.072279519/-3.072279519
MULES: Solving for alpha.steam
MULES: Solving for alpha.water
MULES: Correcting alpha.steam
MULES: Correcting alpha.water
steam fraction, min, max = 0.9900220818 0.9900220818 0.9900220818
water fraction, min, max = 0.009977918166 0.009977918166 0.009977918166
Phase-sum volume fraction, min, max = 1 1 1
MULES: Solving for alpha.steam
MULES: Solving for alpha.water
MULES: Correcting alpha.steam
MULES: Correcting alpha.water
steam fraction, min, max = 0.9900270702 0.9900270702 0.9900270702
water fraction, min, max = 0.009972929824 0.009972929824 0.009972929824
Phase-sum volume fraction, min, max = 1 1 1
MULES: Solving for alpha.steam
MULES: Solving for alpha.water
MULES: Correcting alpha.steam
MULES: Correcting alpha.water
steam fraction, min, max = 0.990032056 0.990032056 0.990032056
water fraction, min, max = 0.009967943976 0.009967943976 0.009967943976
Phase-sum volume fraction, min, max = 1 1 1
Constructing momentum equations
diagonal:  Solving for h.steam, Initial residual = 0, Final residual = 0, No Iterations 0
diagonal:  Solving for e.water, Initial residual = 0, Final residual = 0, No Iterations 0
steam min/max T 385.2508757 - 385.2508757
water min/max T 378.2980736 - 378.2980736
heatTransferLimitedPhaseChange: phaseChange
    min/mean/max Tsat = 372.76/372.76/372.76
    min/mean/max mDot = -3.072271765/-3.072271765/-3.072271765
diagonal:  Solving for p_rgh, Initial residual = 0, Final residual = 0, No Iterations 0
ExecutionTime = 0.189039 s  ClockTime = 0 s

Courant Number mean: 0 max: 0
Time = 0.015s

PIMPLE: Iteration 1
heatTransferLimitedPhaseChange: phaseChange
    min/mean/max Tsat = 372.76/372.76/372.76
    min/mean/max mDot = -3.072271764/-3.072271764/-3.072271764
MULES: Solving for alpha.steam
MULES: Solving for alpha.water
MULES: Correcting alpha.steam
MULES: Correcting alpha.water
steam fraction, min, max = 0.9900370394 0.9900370394 0.9900370394
water fraction, min, max = 0.009962960633 0.009962960633 0.009962960633
Phase-sum volume fraction, min, max = 1 1 1
MULES: Solving for alpha.steam
MULES: Solving for alpha.water
MULES: Correcting alpha.steam
MULES: Correcting alpha.water
steam fraction, min, max = 0.9900420202 0.9900420202 0.9900420202
water fraction, min, max = 0.009957979782 0.009957979782 0.009957979782
Phase-sum volume fraction, min, max = 1 1 1
MULES: Solving for alpha.steam
MULES: Solving for alpha.water
MULES: Correcting alpha.steam
MULES: Correcting alpha.water
steam fraction, min, max = 0.9900469986 0.9900469986 0.9900469986
water fraction, min, max = 0.00995300142 0.00995300142 0.00995300142
Phase-sum volume fraction, min, max = 1 1 1
Constructing momentum equations
diagonal:  Solving for h.steam, Initial residual = 0, Final residual = 0, No Iterations 0
diagonal:  Solving for e.water, Initial residual = 0, Final residual = 0, No Iterations 0
steam min/max T 387.4027002 - 387.4027002
water min/max T 377.6027276 - 377.6027276
heatTransferLimitedPhaseChange: phaseChange
    min/mean/max Tsat = 372.76/372.76/372.76
    min/mean/max mDot = -2.691259053/-2.691259053/-2.691259053
diagonal:  Solving for p_rgh, Initial residual = 0, Final residual = 0, No Iterations 0
PIMPLE: Iteration 2
heatTransferLimitedPhaseChange: phaseChange
    min/mean/max Tsat = 372.76/372.76/372.76
    min/mean/max mDot = -2.691262568/-2.691262568/-2.691262568
MULES: Solving for alpha.steam
MULES: Solving for alpha.water
MULES: Correcting alpha.steam
MULES: Correcting alpha.water
steam fraction, min, max = 0.9900364282 0.9900364282 0.9900364282
water fraction, min, max = 0.009963571828 0.009963571828 0.009963571828
Phase-sum volume fraction, min, max = 1 1 1
MULES: Solving for alpha.steam
MULES: Solving for alpha.water
MULES: Correcting alpha.steam
MULES: Correcting alpha.water
steam fraction, min, max = 0.9900407984 0.9900407984 0.9900407984
water fraction, min, max = 0.009959201599 0.009959201599 0.009959201599
Phase-sum volume fraction, min, max = 1 1 1
MULES: Solving for alpha.steam
MULES: Solving for alpha.water
MULES: Correcting alpha.steam
MULES: Correcting alpha.water
steam fraction, min, max = 0.9900451667 0.9900451667 0.9900451667
water fraction, min, max = 0.009954833286 0.009954833286 0.009954833286
Phase-sum volume fraction, min, max = 1 1 1
Constructing momentum equations
diagonal:  Solving for h.steam, Initial residual = 0, Final residual = 0, No Iterations 0
diagonal:  Solving for e.water, Initial residual = 0, Final residual = 0, No Iterations 0
steam min/max T 387.1428926 - 387.1428926
water min/max T 377.6029281 - 377.6029281
heatTransferLimitedPhaseChange: phaseChange
    min/mean/max Tsat = 372.76/372.76/372.76
    min/mean/max mDot = -2.691255996/-2.691255996/-2.691255996
diagonal:  Solving for p_rgh, Initial residual = 0, Final residual = 0, No Iterations 0
PIMPLE: Iteration 3
heatTransferLimitedPhaseChange: phaseChange
    min/mean/max Tsat = 372.76/372.76/372.76
    min/mean/max mDot = -2.69125591/-2.69125591/-2.69125591
MULES: Solving for alpha.steam
MULES: Solving for alpha.water
MULES: Correcting alpha.steam
MULES: Correcting alpha.water
steam fraction, min, max = 0.9900364274 0.9900364274 0.9900364274
water fraction, min, max = 0.009963572638 0.009963572638 0.009963572638
Phase-sum volume fraction, min, max = 1 1 1
MULES: Solving for alpha.steam
MULES: Solving for alpha.water
MULES: Correcting alpha.steam
MULES: Correcting alpha.water
steam fraction, min, max = 0.9900407968 0.9900407968 0.9900407968
water fraction, min, max = 0.009959203216 0.009959203216 0.009959203216
Phase-sum volume fraction, min, max = 1 1 1
MULES: Solving for alpha.steam
MULES: Solving for alpha.water
MULES: Correcting alpha.steam
MULES: Correcting alpha.water
steam fraction, min, max = 0.9900451643 0.9900451643 0.9900451643
water fraction, min, max = 0.009954835711 0.009954835711 0.009954835711
Phase-sum volume fraction, min, max = 1 1 1
Constructing momentum equations
diagonal:  Solving for h.steam, Initial residual = 0, Final residual = 0, No Iterations 0
diagonal:  Solving for e.water, Initial residual = 0, Final residual = 0, No Iterations 0
steam min/max T 387.0863725 - 387.0863725
water min/max T 377.602815 - 377.602815
heatTransferLimitedPhaseChange: phaseChange
    min/mean/max Tsat = 372.76/372.76/372.76
    min/mean/max mDot = -2.691061329/-2.691061329/-2.691061329
diagonal:  Solving for p_rgh, Initial residual = 0, Final residual = 0, No Iterations 0
PIMPLE: Iteration 4
heatTransferLimitedPhaseChange: phaseChange
    min/mean/max Tsat = 372.76/372.76/372.76
    min/mean/max mDot = -2.69106131/-2.69106131/-2.69106131
MULES: Solving for alpha.steam
MULES: Solving for alpha.water
MULES: Correcting alpha.steam
MULES: Correcting alpha.water
steam fraction, min, max = 0.990036427 0.990036427 0.990036427
water fraction, min, max = 0.009963572955 0.009963572955 0.009963572955
Phase-sum volume fraction, min, max = 1 1 1
MULES: Solving for alpha.steam
MULES: Solving for alpha.water
MULES: Correcting alpha.steam
MULES: Correcting alpha.water
steam fraction, min, max = 0.9900407961 0.9900407961 0.9900407961
water fraction, min, max = 0.00995920385 0.00995920385 0.00995920385
Phase-sum volume fraction, min, max = 1 1 1
MULES: Solving for alpha.steam
MULES: Solving for alpha.water
MULES: Correcting alpha.steam
MULES: Correcting alpha.water
steam fraction, min, max = 0.9900451633 0.9900451633 0.9900451633
water fraction, min, max = 0.009954836662 0.009954836662 0.009954836662
Phase-sum volume fraction, min, max = 1 1 1
Constructing momentum equations
diagonal:  Solving for h.steam, Initial residual = 0, Final residual = 0, No Iterations 0
diagonal:  Solving for e.water, Initial residual = 0, Final residual = 0, No Iterations 0
steam min/max T 387.0739575 - 387.0739575
water min/max T 377.6028145 - 377.6028145
heatTransferLimitedPhaseChange: phaseChange
    min/mean/max Tsat = 372.76/372.76/372.76
    min/mean/max mDot = -2.691032095/-2.691032095/-2.691032095
diagonal:  Solving for p_rgh, Initial residual = 0, Final residual = 0, No Iterations 0
PIMPLE: Iteration 5
heatTransferLimitedPhaseChange: phaseChange
    min/mean/max Tsat = 372.76/372.76/372.76
    min/mean/max mDot = -2.691032091/-2.691032091/-2.691032091
MULES: Solving for alpha.steam
MULES: Solving for alpha.water
MULES: Correcting alpha.steam
MULES: Correcting alpha.water
steam fraction, min, max = 0.990036427 0.990036427 0.990036427
water fraction, min, max = 0.009963573003 0.009963573003 0.009963573003
Phase-sum volume fraction, min, max = 1 1 1
MULES: Solving for alpha.steam
MULES: Solving for alpha.water
MULES: Correcting alpha.steam
MULES: Correcting alpha.water
steam fraction, min, max = 0.9900407961 0.9900407961 0.9900407961
water fraction, min, max = 0.009959203946 0.009959203946 0.009959203946
Phase-sum volume fraction, min, max = 1 1 1
MULES: Solving for alpha.steam
MULES: Solving for alpha.water
MULES: Correcting alpha.steam
MULES: Correcting alpha.water
steam fraction, min, max = 0.9900451632 0.9900451632 0.9900451632
water fraction, min, max = 0.009954836805 0.009954836805 0.009954836805
Phase-sum volume fraction, min, max = 1 1 1
Constructing momentum equations
diagonal:  Solving for h.steam, Initial residual = 0, Final residual = 0, No Iterations 0
diagonal:  Solving for e.water, Initial residual = 0, Final residual = 0, No Iterations 0
steam min/max T 387.0712392 - 387.0712392
water min/max T 377.6028144 - 377.6028144
heatTransferLimitedPhaseChange: phaseChange
    min/mean/max Tsat = 372.76/372.76/372.76
    min/mean/max mDot = -2.691025678/-2.691025678/-2.691025678
diagonal:  Solving for p_rgh, Initial residual = 0, Final residual = 0, No Iterations 0
ExecutionTime = 0.204547 s  ClockTime = 0 s

Courant Number mean: 0 max: 0
Time = 0.02s

PIMPLE: Iteration 1
heatTransferLimitedPhaseChange: phaseChange
    min/mean/max Tsat = 372.76/372.76/372.76
    min/mean/max mDot = -2.691025677/-2.691025677/-2.691025677
MULES: Solving for alpha.steam
MULES: Solving for alpha.water
MULES: Correcting alpha.steam
MULES: Correcting alpha.water
steam fraction, min, max = 0.9900495284 0.9900495284 0.9900495284
water fraction, min, max = 0.00995047159 0.00995047159 0.00995047159
Phase-sum volume fraction, min, max = 1 1 1
MULES: Solving for alpha.steam
MULES: Solving for alpha.water
MULES: Correcting alpha.steam
MULES: Correcting alpha.water
steam fraction, min, max = 0.9900538917 0.9900538917 0.9900538917
water fraction, min, max = 0.009946108289 0.009946108289 0.009946108289
Phase-sum volume fraction, min, max = 1 1 1
MULES: Solving for alpha.steam
MULES: Solving for alpha.water
MULES: Correcting alpha.steam
MULES: Correcting alpha.water
steam fraction, min, max = 0.9900582531 0.9900582531 0.9900582531
water fraction, min, max = 0.009941746901 0.009941746901 0.009941746901
Phase-sum volume fraction, min, max = 1 1 1
Constructing momentum equations
diagonal:  Solving for h.steam, Initial residual = 0, Final residual = 0, No Iterations 0
diagonal:  Solving for e.water, Initial residual = 0, Final residual = 0, No Iterations 0
steam min/max T 388.7779024 - 388.7779024
water min/max T 376.9943834 - 376.9943834
heatTransferLimitedPhaseChange: phaseChange
    min/mean/max Tsat = 372.76/372.76/372.76
    min/mean/max mDot = -2.358086657/-2.358086657/-2.358086657
diagonal:  Solving for p_rgh, Initial residual = 0, Final residual = 0, No Iterations 0
PIMPLE: Iteration 2
heatTransferLimitedPhaseChange: phaseChange
    min/mean/max Tsat = 372.76/372.76/372.76
    min/mean/max mDot = -2.358089323/-2.358089323/-2.358089323
MULES: Solving for alpha.steam
MULES: Solving for alpha.water
MULES: Correcting alpha.steam
MULES: Correcting alpha.water
steam fraction, min, max = 0.9900489936 0.9900489936 0.9900489936
water fraction, min, max = 0.009951006421 0.009951006421 0.009951006421
Phase-sum volume fraction, min, max = 1 1 1
MULES: Solving for alpha.steam
MULES: Solving for alpha.water
MULES: Correcting alpha.steam
MULES: Correcting alpha.water
steam fraction, min, max = 0.9900528225 0.9900528225 0.9900528225
water fraction, min, max = 0.00994717751 0.00994717751 0.00994717751
Phase-sum volume fraction, min, max = 1 1 1
MULES: Solving for alpha.steam
MULES: Solving for alpha.water
MULES: Correcting alpha.steam
MULES: Correcting alpha.water
steam fraction, min, max = 0.9900566499 0.9900566499 0.9900566499
water fraction, min, max = 0.009943350073 0.009943350073 0.009943350073
Phase-sum volume fraction, min, max = 1 1 1
Constructing momentum equations
diagonal:  Solving for h.steam, Initial residual = 0, Final residual = 0, No Iterations 0
diagonal:  Solving for e.water, Initial residual = 0, Final residual = 0, No Iterations 0
steam min/max T 388.5620907 - 388.5620907
water min/max T 376.9945405 - 376.9945405
heatTransferLimitedPhaseChange: phaseChange
    min/mean/max Tsat = 372.76/372.76/372.76
    min/mean/max mDot = -2.358047959/-2.358047959/-2.358047959
diagonal:  Solving for p_rgh, Initial residual = 0, Final residual = 0, No Iterations 0
PIMPLE: Iteration 3
heatTransferLimitedPhaseChange: phaseChange
    min/mean/max Tsat = 372.76/372.76/372.76
    min/mean/max mDot = -2.358047895/-2.358047895/-2.358047895
MULES: Solving for alpha.steam
MULES: Solving for alpha.water
MULES: Correcting alpha.steam
MULES: Correcting alpha.water
steam fraction, min, max = 0.9900489929 0.9900489929 0.9900489929
water fraction, min, max = 0.009951007101 0.009951007101 0.009951007101
Phase-sum volume fraction, min, max = 1 1 1
MULES: Solving for alpha.steam
MULES: Solving for alpha.water
MULES: Correcting alpha.steam
MULES: Correcting alpha.water
steam fraction, min, max = 0.9900528211 0.9900528211 0.9900528211
water fraction, min, max = 0.00994717887 0.00994717887 0.00994717887
Phase-sum volume fraction, min, max = 1 1 1
MULES: Solving for alpha.steam
MULES: Solving for alpha.water
MULES: Correcting alpha.steam
MULES: Correcting alpha.water
steam fraction, min, max = 0.9900566479 0.9900566479 0.9900566479
water fraction, min, max = 0.009943352112 0.009943352112 0.009943352112
Phase-sum volume fraction, min, max = 1 1 1
Constructing momentum equations
diagonal:  Solving for h.steam, Initial residual = 0, Final residual = 0, No Iterations 0
diagonal:  Solving for e.water, Initial residual = 0, Final residual = 0, No Iterations 0
steam min/max T 388.5151016 - 388.5151016
water min/max T 376.9944535 - 376.9944535
heatTransferLimitedPhaseChange: phaseChange
    min/mean/max Tsat = 372.76/372.76/372.76
    min/mean/max mDot = -2.357890118/-2.357890118/-2.357890118
diagonal:  Solving for p_rgh, Initial residual = 0, Final residual = 0, No Iterations 0
PIMPLE: Iteration 4
heatTransferLimitedPhaseChange: phaseChange
    min/mean/max Tsat = 372.76/372.76/372.76
    min/mean/max mDot = -2.357890104/-2.357890104/-2.357890104
MULES: Solving for alpha.steam
MULES: Solving for alpha.water
MULES: Correcting alpha.steam
MULES: Correcting alpha.water
steam fraction, min, max = 0.9900489926 0.9900489926 0.9900489926
water fraction, min, max = 0.009951007358 0.009951007358 0.009951007358
Phase-sum volume fraction, min, max = 1 1 1
MULES: Solving for alpha.steam
MULES: Solving for alpha.water
MULES: Correcting alpha.steam
MULES: Correcting alpha.water
steam fraction, min, max = 0.9900528206 0.9900528206 0.9900528206
water fraction, min, max = 0.009947179384 0.009947179384 0.009947179384
Phase-sum volume fraction, min, max = 1 1 1
MULES: Solving for alpha.steam
MULES: Solving for alpha.water
MULES: Correcting alpha.steam
MULES: Correcting alpha.water
steam fraction, min, max = 0.9900566471 0.9900566471 0.9900566471
water fraction, min, max = 0.009943352882 0.009943352882 0.009943352882
Phase-sum volume fraction, min, max = 1 1 1
Constructing momentum equations
diagonal:  Solving for h.steam, Initial residual = 0, Final residual = 0, No Iterations 0
diagonal:  Solving for e.water, Initial residual = 0, Final residual = 0, No Iterations 0
steam min/max T 388.5047827 - 388.5047827
water min/max T 376.9944532 - 376.9944532
heatTransferLimitedPhaseChange: phaseChange
    min/mean/max Tsat = 372.76/372.76/372.76
    min/mean/max mDot = -2.357865846/-2.357865846/-2.357865846
diagonal:  Solving for p_rgh, Initial residual = 0, Final residual = 0, No Iterations 0
PIMPLE: Iteration 5
heatTransferLimitedPhaseChange: phaseChange
    min/mean/max Tsat = 372.76/372.76/372.76
    min/mean/max mDot = -2.357865843/-2.357865843/-2.357865843
MULES: Solving for alpha.steam
MULES: Solving for alpha.water
MULES: Correcting alpha.steam
MULES: Correcting alpha.water
steam fraction, min, max = 0.9900489926 0.9900489926 0.9900489926
water fraction, min, max = 0.009951007398 0.009951007398 0.009951007398
Phase-sum volume fraction, min, max = 1 1 1
MULES: Solving for alpha.steam
MULES: Solving for alpha.water
MULES: Correcting alpha.steam
MULES: Correcting alpha.water
steam fraction, min, max = 0.9900528205 0.9900528205 0.9900528205
water fraction, min, max = 0.009947179463 0.009947179463 0.009947179463
Phase-sum volume fraction, min, max = 1 1 1
MULES: Solving for alpha.steam
MULES: Solving for alpha.water
MULES: Correcting alpha.steam
MULES: Correcting alpha.water
steam fraction, min, max = 0.990056647 0.990056647 0.990056647
water fraction, min, max = 0.009943353001 0.009943353001 0.009943353001
Phase-sum volume fraction, min, max = 1 1 1
Constructing momentum equations
diagonal:  Solving for h.steam, Initial residual = 0, Final residual = 0, No Iterations 0
diagonal:  Solving for e.water, Initial residual = 0, Final residual = 0, No Iterations 0
steam min/max T 388.5025231 - 388.5025231
water min/max T 376.9944531 - 376.9944531
heatTransferLimitedPhaseChange: phaseChange
    min/mean/max Tsat = 372.76/372.76/372.76
    min/mean/max mDot = -2.35786052/-2.35786052/-2.35786052
diagonal:  Solving for p_rgh, Initial residual = 0, Final residual = 0, No Iterations 0
ExecutionTime = 0.220036 s  ClockTime = 1 s

Courant Number mean: 0 max: 0
Time = 0.025s

PIMPLE: Iteration 1
heatTransferLimitedPhaseChange: phaseChange
    min/mean/max Tsat = 372.76/372.76/372.76
    min/mean/max mDot = -2.357860519/-2.357860519/-2.357860519
MULES: Solving for alpha.steam
MULES: Solving for alpha.water
MULES: Correcting alpha.steam
MULES: Correcting alpha.water
steam fraction, min, max = 0.990060472 0.990060472 0.990060472
water fraction, min, max = 0.00993952802 0.00993952802 0.00993952802
Phase-sum volume fraction, min, max = 1 1 1
MULES: Solving for alpha.steam
MULES: Solving for alpha.water
MULES: Correcting alpha.steam
MULES: Correcting alpha.water
steam fraction, min, max = 0.9900642955 0.9900642955 0.9900642955
water fraction, min, max = 0.00993570451 0.00993570451 0.00993570451
Phase-sum volume fraction, min, max = 1 1 1
MULES: Solving for alpha.steam
MULES: Solving for alpha.water
MULES: Correcting alpha.steam
MULES: Correcting alpha.water
steam fraction, min, max = 0.9900681175 0.9900681175 0.9900681175
water fraction, min, max = 0.009931882471 0.009931882471 0.009931882471
Phase-sum volume fraction, min, max = 1 1 1
Constructing momentum equations
diagonal:  Solving for h.steam, Initial residual = 0, Final residual = 0, No Iterations 0
diagonal:  Solving for e.water, Initial residual = 0, Final residual = 0, No Iterations 0
steam min/max T 389.853234 - 389.853234
water min/max T 376.4621631 - 376.4621631
heatTransferLimitedPhaseChange: phaseChange
    min/mean/max Tsat = 372.76/372.76/372.76
    min/mean/max mDot = -2.066913314/-2.066913314/-2.066913314
diagonal:  Solving for p_rgh, Initial residual = 0, Final residual = 0, No Iterations 0
PIMPLE: Iteration 2
heatTransferLimitedPhaseChange: phaseChange
    min/mean/max Tsat = 372.76/372.76/372.76
    min/mean/max mDot = -2.066915337/-2.066915337/-2.066915337
MULES: Solving for alpha.steam
MULES: Solving for alpha.water
MULES: Correcting alpha.steam
MULES: Correcting alpha.water
steam fraction, min, max = 0.990060004 0.990060004 0.990060004
water fraction, min, max = 0.009939995971 0.009939995971 0.009939995971
Phase-sum volume fraction, min, max = 1 1 1
MULES: Solving for alpha.steam
MULES: Solving for alpha.water
MULES: Correcting alpha.steam
MULES: Correcting alpha.water
steam fraction, min, max = 0.9900633599 0.9900633599 0.9900633599
water fraction, min, max = 0.009936640075 0.009936640075 0.009936640075
Phase-sum volume fraction, min, max = 1 1 1
MULES: Solving for alpha.steam
MULES: Solving for alpha.water
MULES: Correcting alpha.steam
MULES: Correcting alpha.water
steam fraction, min, max = 0.9900667147 0.9900667147 0.9900667147
water fraction, min, max = 0.009933285311 0.009933285311 0.009933285311
Phase-sum volume fraction, min, max = 1 1 1
Constructing momentum equations
diagonal:  Solving for h.steam, Initial residual = 0, Final residual = 0, No Iterations 0
diagonal:  Solving for e.water, Initial residual = 0, Final residual = 0, No Iterations 0
steam min/max T 389.67274 - 389.67274
water min/max T 376.4622864 - 376.4622864
heatTransferLimitedPhaseChange: phaseChange
    min/mean/max Tsat = 372.76/372.76/372.76
    min/mean/max mDot = -2.066850578/-2.066850578/-2.066850578
diagonal:  Solving for p_rgh, Initial residual = 0, Final residual = 0, No Iterations 0
PIMPLE: Iteration 3
heatTransferLimitedPhaseChange: phaseChange
    min/mean/max Tsat = 372.76/372.76/372.76
    min/mean/max mDot = -2.066850531/-2.066850531/-2.066850531
MULES: Solving for alpha.steam
MULES: Solving for alpha.water
MULES: Correcting alpha.steam
MULES: Correcting alpha.water
steam fraction, min, max = 0.9900600035 0.9900600035 0.9900600035
water fraction, min, max = 0.009939996547 0.009939996547 0.009939996547
Phase-sum volume fraction, min, max = 1 1 1
MULES: Solving for alpha.steam
MULES: Solving for alpha.water
MULES: Correcting alpha.steam
MULES: Correcting alpha.water
steam fraction, min, max = 0.9900633588 0.9900633588 0.9900633588
water fraction, min, max = 0.009936641226 0.009936641226 0.009936641226
Phase-sum volume fraction, min, max = 1 1 1
MULES: Solving for alpha.steam
MULES: Solving for alpha.water
MULES: Correcting alpha.steam
MULES: Correcting alpha.water
steam fraction, min, max = 0.990066713 0.990066713 0.990066713
water fraction, min, max = 0.009933287037 0.009933287037 0.009933287037
Phase-sum volume fraction, min, max = 1 1 1
Constructing momentum equations
diagonal:  Solving for h.steam, Initial residual = 0, Final residual = 0, No Iterations 0
diagonal:  Solving for e.water, Initial residual = 0, Final residual = 0, No Iterations 0
steam min/max T 389.6334108 - 389.6334108
water min/max T 376.4622195 - 376.4622195
heatTransferLimitedPhaseChange: phaseChange
    min/mean/max Tsat = 372.76/372.76/372.76
    min/mean/max mDot = -2.066721804/-2.066721804/-2.066721804
diagonal:  Solving for p_rgh, Initial residual = 0, Final residual = 0, No Iterations 0
PIMPLE: Iteration 4
heatTransferLimitedPhaseChange: phaseChange
    min/mean/max Tsat = 372.76/372.76/372.76
    min/mean/max mDot = -2.066721794/-2.066721794/-2.066721794
MULES: Solving for alpha.steam
MULES: Solving for alpha.water
MULES: Correcting alpha.steam
MULES: Correcting alpha.water
steam fraction, min, max = 0.9900600032 0.9900600032 0.9900600032
water fraction, min, max = 0.009939996757 0.009939996757 0.009939996757
Phase-sum volume fraction, min, max = 1 1 1
MULES: Solving for alpha.steam
MULES: Solving for alpha.water
MULES: Correcting alpha.steam
MULES: Correcting alpha.water
steam fraction, min, max = 0.9900633584 0.9900633584 0.9900633584
water fraction, min, max = 0.009936641645 0.009936641645 0.009936641645
Phase-sum volume fraction, min, max = 1 1 1
MULES: Solving for alpha.steam
MULES: Solving for alpha.water
MULES: Correcting alpha.steam
MULES: Correcting alpha.water
steam fraction, min, max = 0.9900667123 0.9900667123 0.9900667123
water fraction, min, max = 0.009933287666 0.009933287666 0.009933287666
Phase-sum volume fraction, min, max = 1 1 1
Constructing momentum equations
diagonal:  Solving for h.steam, Initial residual = 0, Final residual = 0, No Iterations 0
diagonal:  Solving for e.water, Initial residual = 0, Final residual = 0, No Iterations 0
steam min/max T 389.6247759 - 389.6247759
water min/max T 376.4622193 - 376.4622193
heatTransferLimitedPhaseChange: phaseChange
    min/mean/max Tsat = 372.76/372.76/372.76
    min/mean/max mDot = -2.066701512/-2.066701512/-2.066701512
diagonal:  Solving for p_rgh, Initial residual = 0, Final residual = 0, No Iterations 0
PIMPLE: Iteration 5
heatTransferLimitedPhaseChange: phaseChange
    min/mean/max Tsat = 372.76/372.76/372.76
    min/mean/max mDot = -2.06670151/-2.06670151/-2.06670151
MULES: Solving for alpha.steam
MULES: Solving for alpha.water
MULES: Correcting alpha.steam
MULES: Correcting alpha.water
steam fraction, min, max = 0.9900600032 0.9900600032 0.9900600032
water fraction, min, max = 0.00993999679 0.00993999679 0.00993999679
Phase-sum volume fraction, min, max = 1 1 1
MULES: Solving for alpha.steam
MULES: Solving for alpha.water
MULES: Correcting alpha.steam
MULES: Correcting alpha.water
steam fraction, min, max = 0.9900633583 0.9900633583 0.9900633583
water fraction, min, max = 0.009936641711 0.009936641711 0.009936641711
Phase-sum volume fraction, min, max = 1 1 1
MULES: Solving for alpha.steam
MULES: Solving for alpha.water
MULES: Correcting alpha.steam
MULES: Correcting alpha.water
steam fraction, min, max = 0.9900667122 0.9900667122 0.9900667122
water fraction, min, max = 0.009933287765 0.009933287765 0.009933287765
Phase-sum volume fraction, min, max = 1 1 1
Constructing momentum equations
diagonal:  Solving for h.steam, Initial residual = 0, Final residual = 0, No Iterations 0
diagonal:  Solving for e.water, Initial residual = 0, Final residual = 0, No Iterations 0
steam min/max T 389.6228848 - 389.6228848
water min/max T 376.4622192 - 376.4622192
heatTransferLimitedPhaseChange: phaseChange
    min/mean/max Tsat = 372.76/372.76/372.76
    min/mean/max mDot = -2.06669706/-2.06669706/-2.06669706
diagonal:  Solving for p_rgh, Initial residual = 0, Final residual = 0, No Iterations 0
ExecutionTime = 0.235612 s  ClockTime = 1 s

Courant Number mean: 0 max: 0
Time = 0.03s

PIMPLE: Iteration 1
heatTransferLimitedPhaseChange: phaseChange
    min/mean/max Tsat = 372.76/372.76/372.76
    min/mean/max mDot = -2.06669706/-2.06669706/-2.06669706
MULES: Solving for alpha.steam
MULES: Solving for alpha.water
MULES: Correcting alpha.steam
MULES: Correcting alpha.water
steam fraction, min, max = 0.990070065 0.990070065 0.990070065
water fraction, min, max = 0.009929934959 0.009929934959 0.009929934959
Phase-sum volume fraction, min, max = 1 1 1
MULES: Solving for alpha.steam
MULES: Solving for alpha.water
MULES: Correcting alpha.steam
MULES: Correcting alpha.water
steam fraction, min, max = 0.9900734167 0.9900734167 0.9900734167
water fraction, min, max = 0.009926583284 0.009926583284 0.009926583284
Phase-sum volume fraction, min, max = 1 1 1
MULES: Solving for alpha.steam
MULES: Solving for alpha.water
MULES: Correcting alpha.steam
MULES: Correcting alpha.water
steam fraction, min, max = 0.9900767673 0.9900767673 0.9900767673
water fraction, min, max = 0.00992323274 0.00992323274 0.00992323274
Phase-sum volume fraction, min, max = 1 1 1
Constructing momentum equations
diagonal:  Solving for h.steam, Initial residual = 0, Final residual = 0, No Iterations 0
diagonal:  Solving for e.water, Initial residual = 0, Final residual = 0, No Iterations 0
steam min/max T 390.6860437 - 390.6860437
water min/max T 375.9966108 - 375.9966108
heatTransferLimitedPhaseChange: phaseChange
    min/mean/max Tsat = 372.76/372.76/372.76
    min/mean/max mDot = -1.812426359/-1.812426359/-1.812426359
diagonal:  Solving for p_rgh, Initial residual = 0, Final residual = 0, No Iterations 0
PIMPLE: Iteration 2
heatTransferLimitedPhaseChange: phaseChange
    min/mean/max Tsat = 372.76/372.76/372.76
    min/mean/max mDot = -1.812427894/-1.812427894/-1.812427894
MULES: Solving for alpha.steam
MULES: Solving for alpha.water
MULES: Correcting alpha.steam
MULES: Correcting alpha.water
steam fraction, min, max = 0.9900696556 0.9900696556 0.9900696556
water fraction, min, max = 0.009930344362 0.009930344362 0.009930344362
Phase-sum volume fraction, min, max = 1 1 1
MULES: Solving for alpha.steam
MULES: Solving for alpha.water
MULES: Correcting alpha.steam
MULES: Correcting alpha.water
steam fraction, min, max = 0.9900725982 0.9900725982 0.9900725982
water fraction, min, max = 0.00992740183 0.00992740183 0.00992740183
Phase-sum volume fraction, min, max = 1 1 1
MULES: Solving for alpha.steam
MULES: Solving for alpha.water
MULES: Correcting alpha.steam
MULES: Correcting alpha.water
steam fraction, min, max = 0.9900755398 0.9900755398 0.9900755398
water fraction, min, max = 0.009924460171 0.009924460171 0.009924460171
Phase-sum volume fraction, min, max = 1 1 1
Constructing momentum equations
diagonal:  Solving for h.steam, Initial residual = 0, Final residual = 0, No Iterations 0
diagonal:  Solving for e.water, Initial residual = 0, Final residual = 0, No Iterations 0
steam min/max T 390.5341955 - 390.5341955
water min/max T 375.9967077 - 375.9967077
heatTransferLimitedPhaseChange: phaseChange
    min/mean/max Tsat = 372.76/372.76/372.76
    min/mean/max mDot = -1.812348545/-1.812348545/-1.812348545
diagonal:  Solving for p_rgh, Initial residual = 0, Final residual = 0, No Iterations 0
PIMPLE: Iteration 3
heatTransferLimitedPhaseChange: phaseChange
    min/mean/max Tsat = 372.76/372.76/372.76
    min/mean/max mDot = -1.812348509/-1.812348509/-1.812348509
MULES: Solving for alpha.steam
MULES: Solving for alpha.water
MULES: Correcting alpha.steam
MULES: Correcting alpha.water
steam fraction, min, max = 0.9900696551 0.9900696551 0.9900696551
water fraction, min, max = 0.009930344852 0.009930344852 0.009930344852
Phase-sum volume fraction, min, max = 1 1 1
MULES: Solving for alpha.steam
MULES: Solving for alpha.water
MULES: Correcting alpha.steam
MULES: Correcting alpha.water
steam fraction, min, max = 0.9900725972 0.9900725972 0.9900725972
water fraction, min, max = 0.009927402811 0.009927402811 0.009927402811
Phase-sum volume fraction, min, max = 1 1 1
MULES: Solving for alpha.steam
MULES: Solving for alpha.water
MULES: Correcting alpha.steam
MULES: Correcting alpha.water
steam fraction, min, max = 0.9900755384 0.9900755384 0.9900755384
water fraction, min, max = 0.009924461641 0.009924461641 0.009924461641
Phase-sum volume fraction, min, max = 1 1 1
Constructing momentum equations
diagonal:  Solving for h.steam, Initial residual = 0, Final residual = 0, No Iterations 0
diagonal:  Solving for e.water, Initial residual = 0, Final residual = 0, No Iterations 0
steam min/max T 390.5010858 - 390.5010858
water min/max T 375.9966563 - 375.9966563
heatTransferLimitedPhaseChange: phaseChange
    min/mean/max Tsat = 372.76/372.76/372.76
    min/mean/max mDot = -1.812242871/-1.812242871/-1.812242871
diagonal:  Solving for p_rgh, Initial residual = 0, Final residual = 0, No Iterations 0
PIMPLE: Iteration 4
heatTransferLimitedPhaseChange: phaseChange
    min/mean/max Tsat = 372.76/372.76/372.76
    min/mean/max mDot = -1.812242863/-1.812242863/-1.812242863
MULES: Solving for alpha.steam
MULES: Solving for alpha.water
MULES: Correcting alpha.steam
MULES: Correcting alpha.water
steam fraction, min, max = 0.990069655 0.990069655 0.990069655
water fraction, min, max = 0.009930345024 0.009930345024 0.009930345024
Phase-sum volume fraction, min, max = 1 1 1
MULES: Solving for alpha.steam
MULES: Solving for alpha.water
MULES: Correcting alpha.steam
MULES: Correcting alpha.water
steam fraction, min, max = 0.9900725968 0.9900725968 0.9900725968
water fraction, min, max = 0.009927403155 0.009927403155 0.009927403155
Phase-sum volume fraction, min, max = 1 1 1
MULES: Solving for alpha.steam
MULES: Solving for alpha.water
MULES: Correcting alpha.steam
MULES: Correcting alpha.water
steam fraction, min, max = 0.9900755378 0.9900755378 0.9900755378
water fraction, min, max = 0.009924462157 0.009924462157 0.009924462157
Phase-sum volume fraction, min, max = 1 1 1
Constructing momentum equations
diagonal:  Solving for h.steam, Initial residual = 0, Final residual = 0, No Iterations 0
diagonal:  Solving for e.water, Initial residual = 0, Final residual = 0, No Iterations 0
steam min/max T 390.4938178 - 390.4938178
water min/max T 375.9966561 - 375.9966561
heatTransferLimitedPhaseChange: phaseChange
    min/mean/max Tsat = 372.76/372.76/372.76
    min/mean/max mDot = -1.812225805/-1.812225805/-1.812225805
diagonal:  Solving for p_rgh, Initial residual = 0, Final residual = 0, No Iterations 0
PIMPLE: Iteration 5
heatTransferLimitedPhaseChange: phaseChange
    min/mean/max Tsat = 372.76/372.76/372.76
    min/mean/max mDot = -1.812225803/-1.812225803/-1.812225803
MULES: Solving for alpha.steam
MULES: Solving for alpha.water
MULES: Correcting alpha.steam
MULES: Correcting alpha.water
steam fraction, min, max = 0.9900696549 0.9900696549 0.9900696549
water fraction, min, max = 0.009930345052 0.009930345052 0.009930345052
Phase-sum volume fraction, min, max = 1 1 1
MULES: Solving for alpha.steam
MULES: Solving for alpha.water
MULES: Correcting alpha.steam
MULES: Correcting alpha.water
steam fraction, min, max = 0.9900725968 0.9900725968 0.9900725968
water fraction, min, max = 0.00992740321 0.00992740321 0.00992740321
Phase-sum volume fraction, min, max = 1 1 1
MULES: Solving for alpha.steam
MULES: Solving for alpha.water
MULES: Correcting alpha.steam
MULES: Correcting alpha.water
steam fraction, min, max = 0.9900755378 0.9900755378 0.9900755378
water fraction, min, max = 0.00992446224 0.00992446224 0.00992446224
Phase-sum volume fraction, min, max = 1 1 1
Constructing momentum equations
diagonal:  Solving for h.steam, Initial residual = 0, Final residual = 0, No Iterations 0
diagonal:  Solving for e.water, Initial residual = 0, Final residual = 0, No Iterations 0
steam min/max T 390.4922259 - 390.4922259
water min/max T 375.9966561 - 375.9966561
heatTransferLimitedPhaseChange: phaseChange
    min/mean/max Tsat = 372.76/372.76/372.76
    min/mean/max mDot = -1.812222062/-1.812222062/-1.812222062
diagonal:  Solving for p_rgh, Initial residual = 0, Final residual = 0, No Iterations 0
ExecutionTime = 0.251079 s  ClockTime = 1 s

Courant Number mean: 0 max: 0
Time = 0.035s

PIMPLE: Iteration 1
heatTransferLimitedPhaseChange: phaseChange
    min/mean/max Tsat = 372.76/372.76/372.76
    min/mean/max mDot = -1.812222062/-1.812222062/-1.812222062
MULES: Solving for alpha.steam
MULES: Solving for alpha.water
MULES: Correcting alpha.steam
MULES: Correcting alpha.water
steam fraction, min, max = 0.9900784779 0.9900784779 0.9900784779
water fraction, min, max = 0.009921522147 0.009921522147 0.009921522147
Phase-sum volume fraction, min, max = 1 1 1
MULES: Solving for alpha.steam
MULES: Solving for alpha.water
MULES: Correcting alpha.steam
MULES: Correcting alpha.water
steam fraction, min, max = 0.9900814171 0.9900814171 0.9900814171
water fraction, min, max = 0.009918582925 0.009918582925 0.009918582925
Phase-sum volume fraction, min, max = 1 1 1
MULES: Solving for alpha.steam
MULES: Solving for alpha.water
MULES: Correcting alpha.steam
MULES: Correcting alpha.water
steam fraction, min, max = 0.9900843554 0.9900843554 0.9900843554
water fraction, min, max = 0.009915644574 0.009915644574 0.009915644574
Phase-sum volume fraction, min, max = 1 1 1
Constructing momentum equations
diagonal:  Solving for h.steam, Initial residual = 0, Final residual = 0, No Iterations 0
diagonal:  Solving for e.water, Initial residual = 0, Final residual = 0, No Iterations 0
steam min/max T 391.3210629 - 391.3210629
water min/max T 375.5894286 - 375.5894286
heatTransferLimitedPhaseChange: phaseChange
    min/mean/max Tsat = 372.76/372.76/372.76
    min/mean/max mDot = -1.589984527/-1.589984527/-1.589984527
diagonal:  Solving for p_rgh, Initial residual = 0, Final residual = 0, No Iterations 0
PIMPLE: Iteration 2
heatTransferLimitedPhaseChange: phaseChange
    min/mean/max Tsat = 372.76/372.76/372.76
    min/mean/max mDot = -1.589985691/-1.589985691/-1.589985691
MULES: Solving for alpha.steam
MULES: Solving for alpha.water
MULES: Correcting alpha.steam
MULES: Correcting alpha.water
steam fraction, min, max = 0.9900781197 0.9900781197 0.9900781197
water fraction, min, max = 0.009921880311 0.009921880311 0.009921880311
Phase-sum volume fraction, min, max = 1 1 1
MULES: Solving for alpha.steam
MULES: Solving for alpha.water
MULES: Correcting alpha.steam
MULES: Correcting alpha.water
steam fraction, min, max = 0.9900807009 0.9900807009 0.9900807009
water fraction, min, max = 0.009919299054 0.009919299054 0.009919299054
Phase-sum volume fraction, min, max = 1 1 1
MULES: Solving for alpha.steam
MULES: Solving for alpha.water
MULES: Correcting alpha.steam
MULES: Correcting alpha.water
steam fraction, min, max = 0.9900832815 0.9900832815 0.9900832815
water fraction, min, max = 0.009916718469 0.009916718469 0.009916718469
Phase-sum volume fraction, min, max = 1 1 1
Constructing momentum equations
diagonal:  Solving for h.steam, Initial residual = 0, Final residual = 0, No Iterations 0
diagonal:  Solving for e.water, Initial residual = 0, Final residual = 0, No Iterations 0
steam min/max T 391.1926632 - 391.1926632
water min/max T 375.589505 - 375.589505
heatTransferLimitedPhaseChange: phaseChange
    min/mean/max Tsat = 372.76/372.76/372.76
    min/mean/max mDot = -1.58989838/-1.58989838/-1.58989838
diagonal:  Solving for p_rgh, Initial residual = 0, Final residual = 0, No Iterations 0
PIMPLE: Iteration 3
heatTransferLimitedPhaseChange: phaseChange
    min/mean/max Tsat = 372.76/372.76/372.76
    min/mean/max mDot = -1.589898353/-1.589898353/-1.589898353
MULES: Solving for alpha.steam
MULES: Solving for alpha.water
MULES: Correcting alpha.steam
MULES: Correcting alpha.water
steam fraction, min, max = 0.9900781193 0.9900781193 0.9900781193
water fraction, min, max = 0.009921880731 0.009921880731 0.009921880731
Phase-sum volume fraction, min, max = 1 1 1
MULES: Solving for alpha.steam
MULES: Solving for alpha.water
MULES: Correcting alpha.steam
MULES: Correcting alpha.water
steam fraction, min, max = 0.9900807001 0.9900807001 0.9900807001
water fraction, min, max = 0.009919299893 0.009919299893 0.009919299893
Phase-sum volume fraction, min, max = 1 1 1
MULES: Solving for alpha.steam
MULES: Solving for alpha.water
MULES: Correcting alpha.steam
MULES: Correcting alpha.water
steam fraction, min, max = 0.9900832803 0.9900832803 0.9900832803
water fraction, min, max = 0.009916719727 0.009916719727 0.009916719727
Phase-sum volume fraction, min, max = 1 1 1
Constructing momentum equations
diagonal:  Solving for h.steam, Initial residual = 0, Final residual = 0, No Iterations 0
diagonal:  Solving for e.water, Initial residual = 0, Final residual = 0, No Iterations 0
steam min/max T 391.1646494 - 391.1646494
water min/max T 375.5894654 - 375.5894654
heatTransferLimitedPhaseChange: phaseChange
    min/mean/max Tsat = 372.76/372.76/372.76
    min/mean/max mDot = -1.589811185/-1.589811185/-1.589811185
diagonal:  Solving for p_rgh, Initial residual = 0, Final residual = 0, No Iterations 0
PIMPLE: Iteration 4
heatTransferLimitedPhaseChange: phaseChange
    min/mean/max Tsat = 372.76/372.76/372.76
    min/mean/max mDot = -1.589811179/-1.589811179/-1.589811179
MULES: Solving for alpha.steam
MULES: Solving for alpha.water
MULES: Correcting alpha.steam
MULES: Correcting alpha.water
steam fraction, min, max = 0.9900781191 0.9900781191 0.9900781191
water fraction, min, max = 0.009921880873 0.009921880873 0.009921880873
Phase-sum volume fraction, min, max = 1 1 1
MULES: Solving for alpha.steam
MULES: Solving for alpha.water
MULES: Correcting alpha.steam
MULES: Correcting alpha.water
steam fraction, min, max = 0.9900806998 0.9900806998 0.9900806998
water fraction, min, max = 0.009919300177 0.009919300177 0.009919300177
Phase-sum volume fraction, min, max = 1 1 1
MULES: Solving for alpha.steam
MULES: Solving for alpha.water
MULES: Correcting alpha.steam
MULES: Correcting alpha.water
steam fraction, min, max = 0.9900832798 0.9900832798 0.9900832798
water fraction, min, max = 0.009916720152 0.009916720152 0.009916720152
Phase-sum volume fraction, min, max = 1 1 1
Constructing momentum equations
diagonal:  Solving for h.steam, Initial residual = 0, Final residual = 0, No Iterations 0
diagonal:  Solving for e.water, Initial residual = 0, Final residual = 0, No Iterations 0
steam min/max T 391.158501 - 391.158501
water min/max T 375.5894653 - 375.5894653
heatTransferLimitedPhaseChange: phaseChange
    min/mean/max Tsat = 372.76/372.76/372.76
    min/mean/max mDot = -1.589796759/-1.589796759/-1.589796759
diagonal:  Solving for p_rgh, Initial residual = 0, Final residual = 0, No Iterations 0
PIMPLE: Iteration 5
heatTransferLimitedPhaseChange: phaseChange
    min/mean/max Tsat = 372.76/372.76/372.76
    min/mean/max mDot = -1.589796758/-1.589796758/-1.589796758
MULES: Solving for alpha.steam
MULES: Solving for alpha.water
MULES: Correcting alpha.steam
MULES: Correcting alpha.water
steam fraction, min, max = 0.9900781191 0.9900781191 0.9900781191
water fraction, min, max = 0.009921880896 0.009921880896 0.009921880896
Phase-sum volume fraction, min, max = 1 1 1
MULES: Solving for alpha.steam
MULES: Solving for alpha.water
MULES: Correcting alpha.steam
MULES: Correcting alpha.water
steam fraction, min, max = 0.9900806998 0.9900806998 0.9900806998
water fraction, min, max = 0.009919300224 0.009919300224 0.009919300224
Phase-sum volume fraction, min, max = 1 1 1
MULES: Solving for alpha.steam
MULES: Solving for alpha.water
MULES: Correcting alpha.steam
MULES: Correcting alpha.water
steam fraction, min, max = 0.9900832798 0.9900832798 0.9900832798
water fraction, min, max = 0.009916720222 0.009916720222 0.009916720222
Phase-sum volume fraction, min, max = 1 1 1
Constructing momentum equations
diagonal:  Solving for h.steam, Initial residual = 0, Final residual = 0, No Iterations 0
diagonal:  Solving for e.water, Initial residual = 0, Final residual = 0, No Iterations 0
steam min/max T 391.1571542 - 391.1571542
water min/max T 375.5894653 - 375.5894653
heatTransferLimitedPhaseChange: phaseChange
    min/mean/max Tsat = 372.76/372.76/372.76
    min/mean/max mDot = -1.589793596/-1.589793596/-1.589793596
diagonal:  Solving for p_rgh, Initial residual = 0, Final residual = 0, No Iterations 0
ExecutionTime = 0.266608 s  ClockTime = 1 s

Courant Number mean: 0 max: 0
Time = 0.04s

PIMPLE: Iteration 1
heatTransferLimitedPhaseChange: phaseChange
    min/mean/max Tsat = 372.76/372.76/372.76
    min/mean/max mDot = -1.589793595/-1.589793595/-1.589793595
MULES: Solving for alpha.steam
MULES: Solving for alpha.water
MULES: Correcting alpha.steam
MULES: Correcting alpha.water
steam fraction, min, max = 0.9900858591 0.9900858591 0.9900858591
water fraction, min, max = 0.009914140897 0.009914140897 0.009914140897
Phase-sum volume fraction, min, max = 1 1 1
MULES: Solving for alpha.steam
MULES: Solving for alpha.water
MULES: Correcting alpha.steam
MULES: Correcting alpha.water
steam fraction, min, max = 0.9900884378 0.9900884378 0.9900884378
water fraction, min, max = 0.009911562243 0.009911562243 0.009911562243
Phase-sum volume fraction, min, max = 1 1 1
MULES: Solving for alpha.steam
MULES: Solving for alpha.water
MULES: Correcting alpha.steam
MULES: Correcting alpha.water
steam fraction, min, max = 0.9900910157 0.9900910157 0.9900910157
water fraction, min, max = 0.00990898426 0.00990898426 0.00990898426
Phase-sum volume fraction, min, max = 1 1 1
Constructing momentum equations
diagonal:  Solving for h.steam, Initial residual = 0, Final residual = 0, No Iterations 0
diagonal:  Solving for e.water, Initial residual = 0, Final residual = 0, No Iterations 0
steam min/max T 391.7936436 - 391.7936436
water min/max T 375.2333391 - 375.2333391
heatTransferLimitedPhaseChange: phaseChange
    min/mean/max Tsat = 372.76/372.76/372.76
    min/mean/max mDot = -1.395533939/-1.395533939/-1.395533939
diagonal:  Solving for p_rgh, Initial residual = 0, Final residual = 0, No Iterations 0
PIMPLE: Iteration 2
heatTransferLimitedPhaseChange: phaseChange
    min/mean/max Tsat = 372.76/372.76/372.76
    min/mean/max mDot = -1.395534821/-1.395534821/-1.395534821
MULES: Solving for alpha.steam
MULES: Solving for alpha.water
MULES: Correcting alpha.steam
MULES: Correcting alpha.water
steam fraction, min, max = 0.9900855458 0.9900855458 0.9900855458
water fraction, min, max = 0.00991445423 0.00991445423 0.00991445423
Phase-sum volume fraction, min, max = 1 1 1
MULES: Solving for alpha.steam
MULES: Solving for alpha.water
MULES: Correcting alpha.steam
MULES: Correcting alpha.water
steam fraction, min, max = 0.9900878112 0.9900878112 0.9900878112
water fraction, min, max = 0.009912188756 0.009912188756 0.009912188756
Phase-sum volume fraction, min, max = 1 1 1
MULES: Solving for alpha.steam
MULES: Solving for alpha.water
MULES: Correcting alpha.steam
MULES: Correcting alpha.water
steam fraction, min, max = 0.9900900762 0.9900900762 0.9900900762
water fraction, min, max = 0.0099099238 0.0099099238 0.0099099238
Phase-sum volume fraction, min, max = 1 1 1
Constructing momentum equations
diagonal:  Solving for h.steam, Initial residual = 0, Final residual = 0, No Iterations 0
diagonal:  Solving for e.water, Initial residual = 0, Final residual = 0, No Iterations 0
steam min/max T 391.6845949 - 391.6845949
water min/max T 375.2333994 - 375.2333994
heatTransferLimitedPhaseChange: phaseChange
    min/mean/max Tsat = 372.76/372.76/372.76
    min/mean/max mDot = -1.395444414/-1.395444414/-1.395444414
diagonal:  Solving for p_rgh, Initial residual = 0, Final residual = 0, No Iterations 0
PIMPLE: Iteration 3
heatTransferLimitedPhaseChange: phaseChange
    min/mean/max Tsat = 372.76/372.76/372.76
    min/mean/max mDot = -1.395444394/-1.395444394/-1.395444394
MULES: Solving for alpha.steam
MULES: Solving for alpha.water
MULES: Correcting alpha.steam
MULES: Correcting alpha.water
steam fraction, min, max = 0.9900855454 0.9900855454 0.9900855454
water fraction, min, max = 0.00991445459 0.00991445459 0.00991445459
Phase-sum volume fraction, min, max = 1 1 1
MULES: Solving for alpha.steam
MULES: Solving for alpha.water
MULES: Correcting alpha.steam
MULES: Correcting alpha.water
steam fraction, min, max = 0.9900878105 0.9900878105 0.9900878105
water fraction, min, max = 0.009912189476 0.009912189476 0.009912189476
Phase-sum volume fraction, min, max = 1 1 1
MULES: Solving for alpha.steam
MULES: Solving for alpha.water
MULES: Correcting alpha.steam
MULES: Correcting alpha.water
steam fraction, min, max = 0.9900900751 0.9900900751 0.9900900751
water fraction, min, max = 0.009909924879 0.009909924879 0.009909924879
Phase-sum volume fraction, min, max = 1 1 1
Constructing momentum equations
diagonal:  Solving for h.steam, Initial residual = 0, Final residual = 0, No Iterations 0
diagonal:  Solving for e.water, Initial residual = 0, Final residual = 0, No Iterations 0
steam min/max T 391.6607903 - 391.6607903
water min/max T 375.233369 - 375.233369
heatTransferLimitedPhaseChange: phaseChange
    min/mean/max Tsat = 372.76/372.76/372.76
    min/mean/max mDot = -1.395372096/-1.395372096/-1.395372096
diagonal:  Solving for p_rgh, Initial residual = 0, Final residual = 0, No Iterations 0
PIMPLE: Iteration 4
heatTransferLimitedPhaseChange: phaseChange
    min/mean/max Tsat = 372.76/372.76/372.76
    min/mean/max mDot = -1.395372091/-1.395372091/-1.395372091
MULES: Solving for alpha.steam
MULES: Solving for alpha.water
MULES: Correcting alpha.steam
MULES: Correcting alpha.water
steam fraction, min, max = 0.9900855453 0.9900855453 0.9900855453
water fraction, min, max = 0.009914454708 0.009914454708 0.009914454708
Phase-sum volume fraction, min, max = 1 1 1
MULES: Solving for alpha.steam
MULES: Solving for alpha.water
MULES: Correcting alpha.steam
MULES: Correcting alpha.water
steam fraction, min, max = 0.9900878103 0.9900878103 0.9900878103
water fraction, min, max = 0.009912189711 0.009912189711 0.009912189711
Phase-sum volume fraction, min, max = 1 1 1
MULES: Solving for alpha.steam
MULES: Solving for alpha.water
MULES: Correcting alpha.steam
MULES: Correcting alpha.water
steam fraction, min, max = 0.9900900748 0.9900900748 0.9900900748
water fraction, min, max = 0.009909925232 0.009909925232 0.009909925232
Phase-sum volume fraction, min, max = 1 1 1
Constructing momentum equations
diagonal:  Solving for h.steam, Initial residual = 0, Final residual = 0, No Iterations 0
diagonal:  Solving for e.water, Initial residual = 0, Final residual = 0, No Iterations 0
steam min/max T 391.6555665 - 391.6555665
water min/max T 375.2333689 - 375.2333689
heatTransferLimitedPhaseChange: phaseChange
    min/mean/max Tsat = 372.76/372.76/372.76
    min/mean/max mDot = -1.395359847/-1.395359847/-1.395359847
diagonal:  Solving for p_rgh, Initial residual = 0, Final residual = 0, No Iterations 0
PIMPLE: Iteration 5
heatTransferLimitedPhaseChange: phaseChange
    min/mean/max Tsat = 372.76/372.76/372.76
    min/mean/max mDot = -1.395359846/-1.395359846/-1.395359846
MULES: Solving for alpha.steam
MULES: Solving for alpha.water
MULES: Correcting alpha.steam
MULES: Correcting alpha.water
steam fraction, min, max = 0.9900855453 0.9900855453 0.9900855453
water fraction, min, max = 0.009914454728 0.009914454728 0.009914454728
Phase-sum volume fraction, min, max = 1 1 1
MULES: Solving for alpha.steam
MULES: Solving for alpha.water
MULES: Correcting alpha.steam
MULES: Correcting alpha.water
steam fraction, min, max = 0.9900878102 0.9900878102 0.9900878102
water fraction, min, max = 0.009912189751 0.009912189751 0.009912189751
Phase-sum volume fraction, min, max = 1 1 1
MULES: Solving for alpha.steam
MULES: Solving for alpha.water
MULES: Correcting alpha.steam
MULES: Correcting alpha.water
steam fraction, min, max = 0.9900900747 0.9900900747 0.9900900747
water fraction, min, max = 0.009909925292 0.009909925292 0.009909925292
Phase-sum volume fraction, min, max = 1 1 1
Constructing momentum equations
diagonal:  Solving for h.steam, Initial residual = 0, Final residual = 0, No Iterations 0
diagonal:  Solving for e.water, Initial residual = 0, Final residual = 0, No Iterations 0
steam min/max T 391.6544221 - 391.6544221
water min/max T 375.2333689 - 375.2333689
heatTransferLimitedPhaseChange: phaseChange
    min/mean/max Tsat = 372.76/372.76/372.76
    min/mean/max mDot = -1.395357161/-1.395357161/-1.395357161
diagonal:  Solving for p_rgh, Initial residual = 0, Final residual = 0, No Iterations 0
ExecutionTime = 0.282072 s  ClockTime = 1 s

Courant Number mean: 0 max: 0
Time = 0.045s

PIMPLE: Iteration 1
heatTransferLimitedPhaseChange: phaseChange
    min/mean/max Tsat = 372.76/372.76/372.76
    min/mean/max mDot = -1.395357161/-1.395357161/-1.395357161
MULES: Solving for alpha.steam
MULES: Solving for alpha.water
MULES: Correcting alpha.steam
MULES: Correcting alpha.water
steam fraction, min, max = 0.9900923386 0.9900923386 0.9900923386
water fraction, min, max = 0.009907661354 0.009907661354 0.009907661354
Phase-sum volume fraction, min, max = 1 1 1
MULES: Solving for alpha.steam
MULES: Solving for alpha.water
MULES: Correcting alpha.steam
MULES: Correcting alpha.water
steam fraction, min, max = 0.9900946021 0.9900946021 0.9900946021
water fraction, min, max = 0.009905397934 0.009905397934 0.009905397934
Phase-sum volume fraction, min, max = 1 1 1
MULES: Solving for alpha.steam
MULES: Solving for alpha.water
MULES: Correcting alpha.steam
MULES: Correcting alpha.water
steam fraction, min, max = 0.990096865 0.990096865 0.990096865
water fraction, min, max = 0.00990313503 0.00990313503 0.00990313503
Phase-sum volume fraction, min, max = 1 1 1
Constructing momentum equations
diagonal:  Solving for h.steam, Initial residual = 0, Final residual = 0, No Iterations 0
diagonal:  Solving for e.water, Initial residual = 0, Final residual = 0, No Iterations 0
steam min/max T 392.1320534 - 392.1320534
water min/max T 374.9219624 - 374.9219624
heatTransferLimitedPhaseChange: phaseChange
    min/mean/max Tsat = 372.76/372.76/372.76
    min/mean/max mDot = -1.225534155/-1.225534155/-1.225534155
diagonal:  Solving for p_rgh, Initial residual = 0, Final residual = 0, No Iterations 0
PIMPLE: Iteration 2
heatTransferLimitedPhaseChange: phaseChange
    min/mean/max Tsat = 372.76/372.76/372.76
    min/mean/max mDot = -1.225534824/-1.225534824/-1.225534824
MULES: Solving for alpha.steam
MULES: Solving for alpha.water
MULES: Correcting alpha.steam
MULES: Correcting alpha.water
steam fraction, min, max = 0.9900920645 0.9900920645 0.9900920645
water fraction, min, max = 0.00990793547 0.00990793547 0.00990793547
Phase-sum volume fraction, min, max = 1 1 1
MULES: Solving for alpha.steam
MULES: Solving for alpha.water
MULES: Correcting alpha.steam
MULES: Correcting alpha.water
steam fraction, min, max = 0.990094054 0.990094054 0.990094054
water fraction, min, max = 0.009905946048 0.009905946048 0.009905946048
Phase-sum volume fraction, min, max = 1 1 1
MULES: Solving for alpha.steam
MULES: Solving for alpha.water
MULES: Correcting alpha.steam
MULES: Correcting alpha.water
steam fraction, min, max = 0.990096043 0.990096043 0.990096043
water fraction, min, max = 0.009903957025 0.009903957025 0.009903957025
Phase-sum volume fraction, min, max = 1 1 1
Constructing momentum equations
diagonal:  Solving for h.steam, Initial residual = 0, Final residual = 0, No Iterations 0
diagonal:  Solving for e.water, Initial residual = 0, Final residual = 0, No Iterations 0
steam min/max T 392.03909 - 392.03909
water min/max T 374.9220102 - 374.9220102
heatTransferLimitedPhaseChange: phaseChange
    min/mean/max Tsat = 372.76/372.76/372.76
    min/mean/max mDot = -1.225444794/-1.225444794/-1.225444794
diagonal:  Solving for p_rgh, Initial residual = 0, Final residual = 0, No Iterations 0
PIMPLE: Iteration 3
heatTransferLimitedPhaseChange: phaseChange
    min/mean/max Tsat = 372.76/372.76/372.76
    min/mean/max mDot = -1.225444779/-1.225444779/-1.225444779
MULES: Solving for alpha.steam
MULES: Solving for alpha.water
MULES: Correcting alpha.steam
MULES: Correcting alpha.water
steam fraction, min, max = 0.9900920642 0.9900920642 0.9900920642
water fraction, min, max = 0.00990793578 0.00990793578 0.00990793578
Phase-sum volume fraction, min, max = 1 1 1
MULES: Solving for alpha.steam
MULES: Solving for alpha.water
MULES: Correcting alpha.steam
MULES: Correcting alpha.water
steam fraction, min, max = 0.9900940533 0.9900940533 0.9900940533
water fraction, min, max = 0.009905946668 0.009905946668 0.009905946668
Phase-sum volume fraction, min, max = 1 1 1
MULES: Solving for alpha.steam
MULES: Solving for alpha.water
MULES: Correcting alpha.steam
MULES: Correcting alpha.water
steam fraction, min, max = 0.990096042 0.990096042 0.990096042
water fraction, min, max = 0.009903957955 0.009903957955 0.009903957955
Phase-sum volume fraction, min, max = 1 1 1
Constructing momentum equations
diagonal:  Solving for h.steam, Initial residual = 0, Final residual = 0, No Iterations 0
diagonal:  Solving for e.water, Initial residual = 0, Final residual = 0, No Iterations 0
steam min/max T 392.0187871 - 392.0187871
water min/max T 374.9219868 - 374.9219868
heatTransferLimitedPhaseChange: phaseChange
    min/mean/max Tsat = 372.76/372.76/372.76
    min/mean/max mDot = -1.225384525/-1.225384525/-1.225384525
diagonal:  Solving for p_rgh, Initial residual = 0, Final residual = 0, No Iterations 0
PIMPLE: Iteration 4
heatTransferLimitedPhaseChange: phaseChange
    min/mean/max Tsat = 372.76/372.76/372.76
    min/mean/max mDot = -1.225384522/-1.225384522/-1.225384522
MULES: Solving for alpha.steam
MULES: Solving for alpha.water
MULES: Correcting alpha.steam
MULES: Correcting alpha.water
steam fraction, min, max = 0.9900920641 0.9900920641 0.9900920641
water fraction, min, max = 0.009907935878 0.009907935878 0.009907935878
Phase-sum volume fraction, min, max = 1 1 1
MULES: Solving for alpha.steam
MULES: Solving for alpha.water
MULES: Correcting alpha.steam
MULES: Correcting alpha.water
steam fraction, min, max = 0.9900940531 0.9900940531 0.9900940531
water fraction, min, max = 0.009905946864 0.009905946864 0.009905946864
Phase-sum volume fraction, min, max = 1 1 1
MULES: Solving for alpha.steam
MULES: Solving for alpha.water
MULES: Correcting alpha.steam
MULES: Correcting alpha.water
steam fraction, min, max = 0.9900960418 0.9900960418 0.9900960418
water fraction, min, max = 0.009903958249 0.009903958249 0.009903958249
Phase-sum volume fraction, min, max = 1 1 1
Constructing momentum equations
diagonal:  Solving for h.steam, Initial residual = 0, Final residual = 0, No Iterations 0
diagonal:  Solving for e.water, Initial residual = 0, Final residual = 0, No Iterations 0
steam min/max T 392.0143323 - 392.0143323
water min/max T 374.9219868 - 374.9219868
heatTransferLimitedPhaseChange: phaseChange
    min/mean/max Tsat = 372.76/372.76/372.76
    min/mean/max mDot = -1.225374086/-1.225374086/-1.225374086
diagonal:  Solving for p_rgh, Initial residual = 0, Final residual = 0, No Iterations 0
PIMPLE: Iteration 5
heatTransferLimitedPhaseChange: phaseChange
    min/mean/max Tsat = 372.76/372.76/372.76
    min/mean/max mDot = -1.225374085/-1.225374085/-1.225374085
MULES: Solving for alpha.steam
MULES: Solving for alpha.water
MULES: Correcting alpha.steam
MULES: Correcting alpha.water
steam fraction, min, max = 0.9900920641 0.9900920641 0.9900920641
water fraction, min, max = 0.009907935895 0.009907935895 0.009907935895
Phase-sum volume fraction, min, max = 1 1 1
MULES: Solving for alpha.steam
MULES: Solving for alpha.water
MULES: Correcting alpha.steam
MULES: Correcting alpha.water
steam fraction, min, max = 0.9900940531 0.9900940531 0.9900940531
water fraction, min, max = 0.009905946898 0.009905946898 0.009905946898
Phase-sum volume fraction, min, max = 1 1 1
MULES: Solving for alpha.steam
MULES: Solving for alpha.water
MULES: Correcting alpha.steam
MULES: Correcting alpha.water
steam fraction, min, max = 0.9900960417 0.9900960417 0.9900960417
water fraction, min, max = 0.0099039583 0.0099039583 0.0099039583
Phase-sum volume fraction, min, max = 1 1 1
Constructing momentum equations
diagonal:  Solving for h.steam, Initial residual = 0, Final residual = 0, No Iterations 0
diagonal:  Solving for e.water, Initial residual = 0, Final residual = 0, No Iterations 0
steam min/max T 392.0133562 - 392.0133562
water min/max T 374.9219867 - 374.9219867
heatTransferLimitedPhaseChange: phaseChange
    min/mean/max Tsat = 372.76/372.76/372.76
    min/mean/max mDot = -1.225371797/-1.225371797/-1.225371797
diagonal:  Solving for p_rgh, Initial residual = 0, Final residual = 0, No Iterations 0
ExecutionTime = 0.297648 s  ClockTime = 1 s

Courant Number mean: 0 max: 0
Time = 0.05s

PIMPLE: Iteration 1
heatTransferLimitedPhaseChange: phaseChange
    min/mean/max Tsat = 372.76/372.76/372.76
    min/mean/max mDot = -1.225371797/-1.225371797/-1.225371797
MULES: Solving for alpha.steam
MULES: Solving for alpha.water
MULES: Correcting alpha.steam
MULES: Correcting alpha.water
steam fraction, min, max = 0.9900980299 0.9900980299 0.9900980299
water fraction, min, max = 0.009901970105 0.009901970105 0.009901970105
Phase-sum volume fraction, min, max = 1 1 1
MULES: Solving for alpha.steam
MULES: Solving for alpha.water
MULES: Correcting alpha.steam
MULES: Correcting alpha.water
steam fraction, min, max = 0.9901000177 0.9901000177 0.9901000177
water fraction, min, max = 0.009899982309 0.009899982309 0.009899982309
Phase-sum volume fraction, min, max = 1 1 1
MULES: Solving for alpha.steam
MULES: Solving for alpha.water
MULES: Correcting alpha.steam
MULES: Correcting alpha.water
steam fraction, min, max = 0.9901020051 0.9901020051 0.9901020051
water fraction, min, max = 0.009897994912 0.009897994912 0.009897994912
Phase-sum volume fraction, min, max = 1 1 1
Constructing momentum equations
diagonal:  Solving for h.steam, Initial residual = 0, Final residual = 0, No Iterations 0
diagonal:  Solving for e.water, Initial residual = 0, Final residual = 0, No Iterations 0
steam min/max T 392.3591304 - 392.3591304
water min/max T 374.6497082 - 374.6497082
heatTransferLimitedPhaseChange: phaseChange
    min/mean/max Tsat = 372.76/372.76/372.76
    min/mean/max mDot = -1.076893301/-1.076893301/-1.076893301
diagonal:  Solving for p_rgh, Initial residual = 0, Final residual = 0, No Iterations 0
PIMPLE: Iteration 2
heatTransferLimitedPhaseChange: phaseChange
    min/mean/max Tsat = 372.76/372.76/372.76
    min/mean/max mDot = -1.076893808/-1.076893808/-1.076893808
MULES: Solving for alpha.steam
MULES: Solving for alpha.water
MULES: Correcting alpha.steam
MULES: Correcting alpha.water
steam fraction, min, max = 0.9900977901 0.9900977901 0.9900977901
water fraction, min, max = 0.00990220992 0.00990220992 0.00990220992
Phase-sum volume fraction, min, max = 1 1 1
MULES: Solving for alpha.steam
MULES: Solving for alpha.water
MULES: Correcting alpha.steam
MULES: Correcting alpha.water
steam fraction, min, max = 0.9900995382 0.9900995382 0.9900995382
water fraction, min, max = 0.009900461848 0.009900461848 0.009900461848
Phase-sum volume fraction, min, max = 1 1 1
MULES: Solving for alpha.steam
MULES: Solving for alpha.water
MULES: Correcting alpha.steam
MULES: Correcting alpha.water
steam fraction, min, max = 0.9901012859 0.9901012859 0.9901012859
water fraction, min, max = 0.009898714085 0.009898714085 0.009898714085
Phase-sum volume fraction, min, max = 1 1 1
Constructing momentum equations
diagonal:  Solving for h.steam, Initial residual = 0, Final residual = 0, No Iterations 0
diagonal:  Solving for e.water, Initial residual = 0, Final residual = 0, No Iterations 0
steam min/max T 392.2796239 - 392.2796239
water min/max T 374.6497461 - 374.6497461
heatTransferLimitedPhaseChange: phaseChange
    min/mean/max Tsat = 372.76/372.76/372.76
    min/mean/max mDot = -1.076806553/-1.076806553/-1.076806553
diagonal:  Solving for p_rgh, Initial residual = 0, Final residual = 0, No Iterations 0
PIMPLE: Iteration 3
[...]
heatTransferLimitedPhaseChange: phaseChange
    min/mean/max Tsat = 372.76/372.76/372.76
    min/mean/max mDot = -0.001124049873/-0.001124049873/-0.001124049873
diagonal:  Solving for p_rgh, Initial residual = 0, Final residual = 0, No Iterations 0
PIMPLE: Iteration 4
heatTransferLimitedPhaseChange: phaseChange
    min/mean/max Tsat = 372.76/372.76/372.76
    min/mean/max mDot = -0.001124049873/-0.001124049873/-0.001124049873
MULES: Solving for alpha.steam
MULES: Solving for alpha.water
MULES: Correcting alpha.steam
MULES: Correcting alpha.water
steam fraction, min, max = 0.9901484882 0.9901484882 0.9901484882
water fraction, min, max = 0.009851511849 0.009851511849 0.009851511849
Phase-sum volume fraction, min, max = 1 1 1
MULES: Solving for alpha.steam
MULES: Solving for alpha.water
MULES: Correcting alpha.steam
MULES: Correcting alpha.water
steam fraction, min, max = 0.99014849 0.99014849 0.99014849
water fraction, min, max = 0.009851510025 0.009851510025 0.009851510025
Phase-sum volume fraction, min, max = 1 1 1
MULES: Solving for alpha.steam
MULES: Solving for alpha.water
MULES: Correcting alpha.steam
MULES: Correcting alpha.water
steam fraction, min, max = 0.9901484918 0.9901484918 0.9901484918
water fraction, min, max = 0.009851508201 0.009851508201 0.009851508201
Phase-sum volume fraction, min, max = 1 1 1
Constructing momentum equations
diagonal:  Solving for h.steam, Initial residual = 0, Final residual = 0, No Iterations 0
diagonal:  Solving for e.water, Initial residual = 0, Final residual = 0, No Iterations 0
steam min/max T 373.2422168 - 373.2422168
water min/max T 372.76 - 372.76
heatTransferLimitedPhaseChange: phaseChange
    min/mean/max Tsat = 372.76/372.76/372.76
    min/mean/max mDot = -0.001124052768/-0.001124052768/-0.001124052768
diagonal:  Solving for p_rgh, Initial residual = 0, Final residual = 0, No Iterations 0
PIMPLE: Iteration 5
heatTransferLimitedPhaseChange: phaseChange
    min/mean/max Tsat = 372.76/372.76/372.76
    min/mean/max mDot = -0.001124052768/-0.001124052768/-0.001124052768
MULES: Solving for alpha.steam
MULES: Solving for alpha.water
MULES: Correcting alpha.steam
MULES: Correcting alpha.water
steam fraction, min, max = 0.9901484882 0.9901484882 0.9901484882
water fraction, min, max = 0.009851511849 0.009851511849 0.009851511849
Phase-sum volume fraction, min, max = 1 1 1
MULES: Solving for alpha.steam
MULES: Solving for alpha.water
MULES: Correcting alpha.steam
MULES: Correcting alpha.water
steam fraction, min, max = 0.99014849 0.99014849 0.99014849
water fraction, min, max = 0.009851510025 0.009851510025 0.009851510025
Phase-sum volume fraction, min, max = 1 1 1
MULES: Solving for alpha.steam
MULES: Solving for alpha.water
MULES: Correcting alpha.steam
MULES: Correcting alpha.water
steam fraction, min, max = 0.9901484918 0.9901484918 0.9901484918
water fraction, min, max = 0.009851508201 0.009851508201 0.009851508201
Phase-sum volume fraction, min, max = 1 1 1
Constructing momentum equations
diagonal:  Solving for h.steam, Initial residual = 0, Final residual = 0, No Iterations 0
diagonal:  Solving for e.water, Initial residual = 0, Final residual = 0, No Iterations 0
steam min/max T 373.2422171 - 373.2422171
water min/max T 372.76 - 372.76
heatTransferLimitedPhaseChange: phaseChange
    min/mean/max Tsat = 372.76/372.76/372.76
    min/mean/max mDot = -0.001124053403/-0.001124053403/-0.001124053403
diagonal:  Solving for p_rgh, Initial residual = 0, Final residual = 0, No Iterations 0
ExecutionTime = 3.267458 s  ClockTime = 4 s

Courant Number mean: 0 max: 0
Time = 0.995s

PIMPLE: Iteration 1
heatTransferLimitedPhaseChange: phaseChange
    min/mean/max Tsat = 372.76/372.76/372.76
    min/mean/max mDot = -0.001124053403/-0.001124053403/-0.001124053403
MULES: Solving for alpha.steam
MULES: Solving for alpha.water
MULES: Correcting alpha.steam
MULES: Correcting alpha.water
steam fraction, min, max = 0.9901484936 0.9901484936 0.9901484936
water fraction, min, max = 0.009851506377 0.009851506377 0.009851506377
Phase-sum volume fraction, min, max = 1 1 1
MULES: Solving for alpha.steam
MULES: Solving for alpha.water
MULES: Correcting alpha.steam
MULES: Correcting alpha.water
steam fraction, min, max = 0.9901484954 0.9901484954 0.9901484954
water fraction, min, max = 0.009851504553 0.009851504553 0.009851504553
Phase-sum volume fraction, min, max = 1 1 1
MULES: Solving for alpha.steam
MULES: Solving for alpha.water
MULES: Correcting alpha.steam
MULES: Correcting alpha.water
steam fraction, min, max = 0.9901484973 0.9901484973 0.9901484973
water fraction, min, max = 0.009851502729 0.009851502729 0.009851502729
Phase-sum volume fraction, min, max = 1 1 1
Constructing momentum equations
diagonal:  Solving for h.steam, Initial residual = 0, Final residual = 0, No Iterations 0
diagonal:  Solving for e.water, Initial residual = 0, Final residual = 0, No Iterations 0
steam min/max T 373.2322772 - 373.2322772
water min/max T 372.76 - 372.76
heatTransferLimitedPhaseChange: phaseChange
    min/mean/max Tsat = 372.76/372.76/372.76
    min/mean/max mDot = -0.001100882777/-0.001100882777/-0.001100882777
diagonal:  Solving for p_rgh, Initial residual = 0, Final residual = 0, No Iterations 0
PIMPLE: Iteration 2
heatTransferLimitedPhaseChange: phaseChange
    min/mean/max Tsat = 372.76/372.76/372.76
    min/mean/max mDot = -0.001100882776/-0.001100882776/-0.001100882776
MULES: Solving for alpha.steam
MULES: Solving for alpha.water
MULES: Correcting alpha.steam
MULES: Correcting alpha.water
steam fraction, min, max = 0.9901484936 0.9901484936 0.9901484936
water fraction, min, max = 0.009851506415 0.009851506415 0.009851506415
Phase-sum volume fraction, min, max = 1 1 1
MULES: Solving for alpha.steam
MULES: Solving for alpha.water
MULES: Correcting alpha.steam
MULES: Correcting alpha.water
steam fraction, min, max = 0.9901484954 0.9901484954 0.9901484954
water fraction, min, max = 0.009851504628 0.009851504628 0.009851504628
Phase-sum volume fraction, min, max = 1 1 1
MULES: Solving for alpha.steam
MULES: Solving for alpha.water
MULES: Correcting alpha.steam
MULES: Correcting alpha.water
steam fraction, min, max = 0.9901484972 0.9901484972 0.9901484972
water fraction, min, max = 0.009851502841 0.009851502841 0.009851502841
Phase-sum volume fraction, min, max = 1 1 1
Constructing momentum equations
diagonal:  Solving for h.steam, Initial residual = 0, Final residual = 0, No Iterations 0
diagonal:  Solving for e.water, Initial residual = 0, Final residual = 0, No Iterations 0
steam min/max T 373.2323025 - 373.2323025
water min/max T 372.76 - 372.76
heatTransferLimitedPhaseChange: phaseChange
    min/mean/max Tsat = 372.76/372.76/372.76
    min/mean/max mDot = -0.001100941693/-0.001100941693/-0.001100941693
diagonal:  Solving for p_rgh, Initial residual = 0, Final residual = 0, No Iterations 0
PIMPLE: Iteration 3
heatTransferLimitedPhaseChange: phaseChange
    min/mean/max Tsat = 372.76/372.76/372.76
    min/mean/max mDot = -0.001100941693/-0.001100941693/-0.001100941693
MULES: Solving for alpha.steam
MULES: Solving for alpha.water
MULES: Correcting alpha.steam
MULES: Correcting alpha.water
steam fraction, min, max = 0.9901484936 0.9901484936 0.9901484936
water fraction, min, max = 0.009851506414 0.009851506414 0.009851506414
Phase-sum volume fraction, min, max = 1 1 1
MULES: Solving for alpha.steam
MULES: Solving for alpha.water
MULES: Correcting alpha.steam
MULES: Correcting alpha.water
steam fraction, min, max = 0.9901484954 0.9901484954 0.9901484954
water fraction, min, max = 0.009851504628 0.009851504628 0.009851504628
Phase-sum volume fraction, min, max = 1 1 1
MULES: Solving for alpha.steam
MULES: Solving for alpha.water
MULES: Correcting alpha.steam
MULES: Correcting alpha.water
steam fraction, min, max = 0.9901484972 0.9901484972 0.9901484972
water fraction, min, max = 0.009851502841 0.009851502841 0.009851502841
Phase-sum volume fraction, min, max = 1 1 1
Constructing momentum equations
diagonal:  Solving for h.steam, Initial residual = 0, Final residual = 0, No Iterations 0
diagonal:  Solving for e.water, Initial residual = 0, Final residual = 0, No Iterations 0
steam min/max T 373.232308 - 373.232308
water min/max T 372.76 - 372.76
heatTransferLimitedPhaseChange: phaseChange
    min/mean/max Tsat = 372.76/372.76/372.76
    min/mean/max mDot = -0.001100954604/-0.001100954604/-0.001100954604
diagonal:  Solving for p_rgh, Initial residual = 0, Final residual = 0, No Iterations 0
PIMPLE: Iteration 4
heatTransferLimitedPhaseChange: phaseChange
    min/mean/max Tsat = 372.76/372.76/372.76
    min/mean/max mDot = -0.001100954604/-0.001100954604/-0.001100954604
MULES: Solving for alpha.steam
MULES: Solving for alpha.water
MULES: Correcting alpha.steam
MULES: Correcting alpha.water
steam fraction, min, max = 0.9901484936 0.9901484936 0.9901484936
water fraction, min, max = 0.009851506414 0.009851506414 0.009851506414
Phase-sum volume fraction, min, max = 1 1 1
MULES: Solving for alpha.steam
MULES: Solving for alpha.water
MULES: Correcting alpha.steam
MULES: Correcting alpha.water
steam fraction, min, max = 0.9901484954 0.9901484954 0.9901484954
water fraction, min, max = 0.009851504628 0.009851504628 0.009851504628
Phase-sum volume fraction, min, max = 1 1 1
MULES: Solving for alpha.steam
MULES: Solving for alpha.water
MULES: Correcting alpha.steam
MULES: Correcting alpha.water
steam fraction, min, max = 0.9901484972 0.9901484972 0.9901484972
water fraction, min, max = 0.009851502841 0.009851502841 0.009851502841
Phase-sum volume fraction, min, max = 1 1 1
Constructing momentum equations
diagonal:  Solving for h.steam, Initial residual = 0, Final residual = 0, No Iterations 0
diagonal:  Solving for e.water, Initial residual = 0, Final residual = 0, No Iterations 0
steam min/max T 373.2323092 - 373.2323092
water min/max T 372.76 - 372.76
heatTransferLimitedPhaseChange: phaseChange
    min/mean/max Tsat = 372.76/372.76/372.76
    min/mean/max mDot = -0.001100957439/-0.001100957439/-0.001100957439
diagonal:  Solving for p_rgh, Initial residual = 0, Final residual = 0, No Iterations 0
PIMPLE: Iteration 5
heatTransferLimitedPhaseChange: phaseChange
    min/mean/max Tsat = 372.76/372.76/372.76
    min/mean/max mDot = -0.001100957439/-0.001100957439/-0.001100957439
MULES: Solving for alpha.steam
MULES: Solving for alpha.water
MULES: Correcting alpha.steam
MULES: Correcting alpha.water
steam fraction, min, max = 0.9901484936 0.9901484936 0.9901484936
water fraction, min, max = 0.009851506414 0.009851506414 0.009851506414
Phase-sum volume fraction, min, max = 1 1 1
MULES: Solving for alpha.steam
MULES: Solving for alpha.water
MULES: Correcting alpha.steam
MULES: Correcting alpha.water
steam fraction, min, max = 0.9901484954 0.9901484954 0.9901484954
water fraction, min, max = 0.009851504628 0.009851504628 0.009851504628
Phase-sum volume fraction, min, max = 1 1 1
MULES: Solving for alpha.steam
MULES: Solving for alpha.water
MULES: Correcting alpha.steam
MULES: Correcting alpha.water
steam fraction, min, max = 0.9901484972 0.9901484972 0.9901484972
water fraction, min, max = 0.009851502841 0.009851502841 0.009851502841
Phase-sum volume fraction, min, max = 1 1 1
Constructing momentum equations
diagonal:  Solving for h.steam, Initial residual = 0, Final residual = 0, No Iterations 0
diagonal:  Solving for e.water, Initial residual = 0, Final residual = 0, No Iterations 0
steam min/max T 373.2323095 - 373.2323095
water min/max T 372.76 - 372.76
heatTransferLimitedPhaseChange: phaseChange
    min/mean/max Tsat = 372.76/372.76/372.76
    min/mean/max mDot = -0.001100958061/-0.001100958061/-0.001100958061
diagonal:  Solving for p_rgh, Initial residual = 0, Final residual = 0, No Iterations 0
ExecutionTime = 3.282294 s  ClockTime = 4 s

Courant Number mean: 0 max: 0
Time = 1s

PIMPLE: Iteration 1
heatTransferLimitedPhaseChange: phaseChange
    min/mean/max Tsat = 372.76/372.76/372.76
    min/mean/max mDot = -0.001100958061/-0.001100958061/-0.001100958061
MULES: Solving for alpha.steam
MULES: Solving for alpha.water
MULES: Correcting alpha.steam
MULES: Correcting alpha.water
steam fraction, min, max = 0.9901484989 0.9901484989 0.9901484989
water fraction, min, max = 0.009851501054 0.009851501054 0.009851501054
Phase-sum volume fraction, min, max = 1 1 1
MULES: Solving for alpha.steam
MULES: Solving for alpha.water
MULES: Correcting alpha.steam
MULES: Correcting alpha.water
steam fraction, min, max = 0.9901485007 0.9901485007 0.9901485007
water fraction, min, max = 0.009851499268 0.009851499268 0.009851499268
Phase-sum volume fraction, min, max = 1 1 1
MULES: Solving for alpha.steam
MULES: Solving for alpha.water
MULES: Correcting alpha.steam
MULES: Correcting alpha.water
steam fraction, min, max = 0.9901485025 0.9901485025 0.9901485025
water fraction, min, max = 0.009851497481 0.009851497481 0.009851497481
Phase-sum volume fraction, min, max = 1 1 1
Constructing momentum equations
diagonal:  Solving for h.steam, Initial residual = 0, Final residual = 0, No Iterations 0
diagonal:  Solving for e.water, Initial residual = 0, Final residual = 0, No Iterations 0
steam min/max T 373.222574 - 373.222574
water min/max T 372.76 - 372.76
heatTransferLimitedPhaseChange: phaseChange
    min/mean/max Tsat = 372.76/372.76/372.76
    min/mean/max mDot = -0.001078263878/-0.001078263878/-0.001078263878
diagonal:  Solving for p_rgh, Initial residual = 0, Final residual = 0, No Iterations 0
PIMPLE: Iteration 2
heatTransferLimitedPhaseChange: phaseChange
    min/mean/max Tsat = 372.76/372.76/372.76
    min/mean/max mDot = -0.001078263877/-0.001078263877/-0.001078263877
MULES: Solving for alpha.steam
MULES: Solving for alpha.water
MULES: Correcting alpha.steam
MULES: Correcting alpha.water
steam fraction, min, max = 0.9901484989 0.9901484989 0.9901484989
water fraction, min, max = 0.009851501091 0.009851501091 0.009851501091
Phase-sum volume fraction, min, max = 1 1 1
MULES: Solving for alpha.steam
MULES: Solving for alpha.water
MULES: Correcting alpha.steam
MULES: Correcting alpha.water
steam fraction, min, max = 0.9901485007 0.9901485007 0.9901485007
water fraction, min, max = 0.009851499341 0.009851499341 0.009851499341
Phase-sum volume fraction, min, max = 1 1 1
MULES: Solving for alpha.steam
MULES: Solving for alpha.water
MULES: Correcting alpha.steam
MULES: Correcting alpha.water
steam fraction, min, max = 0.9901485024 0.9901485024 0.9901485024
water fraction, min, max = 0.009851497591 0.009851497591 0.009851497591
Phase-sum volume fraction, min, max = 1 1 1
Constructing momentum equations
diagonal:  Solving for h.steam, Initial residual = 0, Final residual = 0, No Iterations 0
diagonal:  Solving for e.water, Initial residual = 0, Final residual = 0, No Iterations 0
steam min/max T 373.2225987 - 373.2225987
water min/max T 372.76 - 372.76
heatTransferLimitedPhaseChange: phaseChange
    min/mean/max Tsat = 372.76/372.76/372.76
    min/mean/max mDot = -0.001078321577/-0.001078321577/-0.001078321577
diagonal:  Solving for p_rgh, Initial residual = 0, Final residual = 0, No Iterations 0
PIMPLE: Iteration 3
heatTransferLimitedPhaseChange: phaseChange
    min/mean/max Tsat = 372.76/372.76/372.76
    min/mean/max mDot = -0.001078321577/-0.001078321577/-0.001078321577
MULES: Solving for alpha.steam
MULES: Solving for alpha.water
MULES: Correcting alpha.steam
MULES: Correcting alpha.water
steam fraction, min, max = 0.9901484989 0.9901484989 0.9901484989
water fraction, min, max = 0.009851501091 0.009851501091 0.009851501091
Phase-sum volume fraction, min, max = 1 1 1
MULES: Solving for alpha.steam
MULES: Solving for alpha.water
MULES: Correcting alpha.steam
MULES: Correcting alpha.water
steam fraction, min, max = 0.9901485007 0.9901485007 0.9901485007
water fraction, min, max = 0.009851499341 0.009851499341 0.009851499341
Phase-sum volume fraction, min, max = 1 1 1
MULES: Solving for alpha.steam
MULES: Solving for alpha.water
MULES: Correcting alpha.steam
MULES: Correcting alpha.water
steam fraction, min, max = 0.9901485024 0.9901485024 0.9901485024
water fraction, min, max = 0.009851497591 0.009851497591 0.009851497591
Phase-sum volume fraction, min, max = 1 1 1
Constructing momentum equations
diagonal:  Solving for h.steam, Initial residual = 0, Final residual = 0, No Iterations 0
diagonal:  Solving for e.water, Initial residual = 0, Final residual = 0, No Iterations 0
steam min/max T 373.2226041 - 373.2226041
water min/max T 372.76 - 372.76
heatTransferLimitedPhaseChange: phaseChange
    min/mean/max Tsat = 372.76/372.76/372.76
    min/mean/max mDot = -0.001078334223/-0.001078334223/-0.001078334223
diagonal:  Solving for p_rgh, Initial residual = 0, Final residual = 0, No Iterations 0
PIMPLE: Iteration 4
heatTransferLimitedPhaseChange: phaseChange
    min/mean/max Tsat = 372.76/372.76/372.76
    min/mean/max mDot = -0.001078334223/-0.001078334223/-0.001078334223
MULES: Solving for alpha.steam
MULES: Solving for alpha.water
MULES: Correcting alpha.steam
MULES: Correcting alpha.water
steam fraction, min, max = 0.9901484989 0.9901484989 0.9901484989
water fraction, min, max = 0.009851501091 0.009851501091 0.009851501091
Phase-sum volume fraction, min, max = 1 1 1
MULES: Solving for alpha.steam
MULES: Solving for alpha.water
MULES: Correcting alpha.steam
MULES: Correcting alpha.water
steam fraction, min, max = 0.9901485007 0.9901485007 0.9901485007
water fraction, min, max = 0.009851499341 0.009851499341 0.009851499341
Phase-sum volume fraction, min, max = 1 1 1
MULES: Solving for alpha.steam
MULES: Solving for alpha.water
MULES: Correcting alpha.steam
MULES: Correcting alpha.water
steam fraction, min, max = 0.9901485024 0.9901485024 0.9901485024
water fraction, min, max = 0.009851497591 0.009851497591 0.009851497591
Phase-sum volume fraction, min, max = 1 1 1
Constructing momentum equations
diagonal:  Solving for h.steam, Initial residual = 0, Final residual = 0, No Iterations 0
diagonal:  Solving for e.water, Initial residual = 0, Final residual = 0, No Iterations 0
steam min/max T 373.2226053 - 373.2226053
water min/max T 372.76 - 372.76
heatTransferLimitedPhaseChange: phaseChange
    min/mean/max Tsat = 372.76/372.76/372.76
    min/mean/max mDot = -0.001078336999/-0.001078336999/-0.001078336999
diagonal:  Solving for p_rgh, Initial residual = 0, Final residual = 0, No Iterations 0
PIMPLE: Iteration 5
heatTransferLimitedPhaseChange: phaseChange
    min/mean/max Tsat = 372.76/372.76/372.76
    min/mean/max mDot = -0.001078336999/-0.001078336999/-0.001078336999
MULES: Solving for alpha.steam
MULES: Solving for alpha.water
MULES: Correcting alpha.steam
MULES: Correcting alpha.water
steam fraction, min, max = 0.9901484989 0.9901484989 0.9901484989
water fraction, min, max = 0.009851501091 0.009851501091 0.009851501091
Phase-sum volume fraction, min, max = 1 1 1
MULES: Solving for alpha.steam
MULES: Solving for alpha.water
MULES: Correcting alpha.steam
MULES: Correcting alpha.water
steam fraction, min, max = 0.9901485007 0.9901485007 0.9901485007
water fraction, min, max = 0.009851499341 0.009851499341 0.009851499341
Phase-sum volume fraction, min, max = 1 1 1
MULES: Solving for alpha.steam
MULES: Solving for alpha.water
MULES: Correcting alpha.steam
MULES: Correcting alpha.water
steam fraction, min, max = 0.9901485024 0.9901485024 0.9901485024
water fraction, min, max = 0.009851497591 0.009851497591 0.009851497591
Phase-sum volume fraction, min, max = 1 1 1
Constructing momentum equations
diagonal:  Solving for h.steam, Initial residual = 0, Final residual = 0, No Iterations 0
diagonal:  Solving for e.water, Initial residual = 0, Final residual = 0, No Iterations 0
steam min/max T 373.2226056 - 373.2226056
water min/max T 372.76 - 372.76
heatTransferLimitedPhaseChange: phaseChange
    min/mean/max Tsat = 372.76/372.76/372.76
    min/mean/max mDot = -0.001078337609/-0.001078337609/-0.001078337609
diagonal:  Solving for p_rgh, Initial residual = 0, Final residual = 0, No Iterations 0
ExecutionTime = 3.298965 s  ClockTime = 4 s

End

