/*---------------------------------------------------------------------------*\
  =========                 |
  \\      /  F ield         | OpenFOAM: The Open Source CFD Toolbox
   \\    /   O peration     | Website:  https://openfoam.org
    \\  /    A nd           | Version:  13
     \\/     M anipulation  |
\*---------------------------------------------------------------------------*/
Build  : 13-19a3d5400c8c
Exec   : foamRun
Date   : Jun 23 2026
Time   : 14:25:50
Host   : "kol-serv"
PID    : 1366410
I/O    : uncollated
Case   : /home/kol/OpenFOAM/OpenFOAM-13/test/multiphaseEuler/heatTransferLimitedPhaseChange/waterEvaporation
nProcs : 1
sigFpe : Enabling floating point exception trapping (FOAM_SIGFPE).
fileModificationChecking : Monitoring run-time modified files using timeStampMaster (fileModificationSkew 10)
allowSystemOperations : Allowing user-supplied system call operations

// * * * * * * * * * * * * * * * * * * * * * * * * * * * * * * * * * * * * * //
Create time

Create mesh for time = 0

Selecting solver multiphaseEuler
No MRF models present

Selecting phaseModel for steam: purePhaseModel
Selecting diameterModel for phase steam: none
Selecting thermodynamics package 
{
    type            heRhoThermo;
    mixture         pureMixture;
    transport       const;
    thermo          hConst;
    equationOfState perfectGas;
    specie          specie;
    energy          sensibleEnthalpy;
}

Calculating face flux field phi.steam
Selecting turbulence model type laminar
    Selecting laminar stress model Stokes
Selecting thermophysical transport type laminar
Selecting default laminar thermophysical transport model unityLewisFourier
Selecting phaseModel for water: purePhaseModel
Selecting diameterModel for phase water: constant
Selecting thermodynamics package 
{
    type            heRhoThermo;
    mixture         pureMixture;
    transport       const;
    thermo          hConst;
    equationOfState rhoConst;
    specie          specie;
    energy          sensibleEnthalpy;
}

Calculating face flux field phi.water
Selecting turbulence model type laminar
    Selecting laminar stress model Stokes
Selecting thermophysical transport type laminar
Selecting default laminar thermophysical transport model unityLewisFourier
Selecting surfaceTensionCoefficientModel for steam_water: constant
Selecting SidedInterfacialModel<heatTransferModel> blending method for steam_water: continuous
Selecting heatTransferModel for water_dispersedIn_steam_inThe_steam: RanzMarshall
Selecting heatTransferModel for water_dispersedIn_steam_inThe_water: spherical
Courant Number mean: 0 max: 0
Creating fvModels from "constant/fvModels"

Selecting finite volume model type heatTransferLimitedPhaseChange
    Name: phaseChange
Selecting saturationTemperatureModel constant

PIMPLE: No convergence criteria found


PIMPLE: No corrector convergence criteria found
        Calculations will do 5 corrections


PIMPLE: Operating solver in transient mode with 5 outer correctors



Starting time loop

Using dynamicCode for coded continuity at line 2 in "/home/kol/OpenFOAM/OpenFOAM-13/test/multiphaseEuler/heatTransferLimitedPhaseChange/waterEvaporation/system/functions/continuity"
volFieldValue plot read:
    number of cells = 1
    volume = 1
    operation = volAverage

Courant Number mean: 0 max: 0
Time = 0.005s

PIMPLE: Iteration 1
heatTransferLimitedPhaseChange: phaseChange
    min/mean/max Tsat = 372.76/372.76/372.76
    min/mean/max mDot = -4.00799417/-4.00799417/-4.00799417
MULES: Solving for alpha.steam
MULES: Solving for alpha.water
MULES: Correcting alpha.steam
MULES: Correcting alpha.water
steam fraction, min, max = 0.99 0.99 0.99
water fraction, min, max = 0.01 0.01 0.01
Phase-sum volume fraction, min, max = 1 1 1
MULES: Solving for alpha.steam
MULES: Solving for alpha.water
MULES: Correcting alpha.steam
MULES: Correcting alpha.water
steam fraction, min, max = 0.99 0.99 0.99
water fraction, min, max = 0.01 0.01 0.01
Phase-sum volume fraction, min, max = 1 1 1
MULES: Solving for alpha.steam
MULES: Solving for alpha.water
MULES: Correcting alpha.steam
MULES: Correcting alpha.water
steam fraction, min, max = 0.99 0.99 0.99
water fraction, min, max = 0.01 0.01 0.01
Phase-sum volume fraction, min, max = 1 1 1
Constructing momentum equations
diagonal:  Solving for h.steam, Initial residual = 0, Final residual = 0, No Iterations 0
diagonal:  Solving for h.water, Initial residual = 0, Final residual = 0, No Iterations 0
steam min/max T 379.8453174 - 379.8453174
water min/max T 379.0925765 - 379.0925765
heatTransferLimitedPhaseChange: phaseChange
    min/mean/max Tsat = 372.76/372.76/372.76
    min/mean/max mDot = -3.507434404/-3.507434404/-3.507434404
diagonal:  Solving for p_rgh, Initial residual = 0, Final residual = 0, No Iterations 0
PIMPLE: Iteration 2
heatTransferLimitedPhaseChange: phaseChange
    min/mean/max Tsat = 372.76/372.76/372.76
    min/mean/max mDot = -3.507439038/-3.507439038/-3.507439038
MULES: Solving for alpha.steam
MULES: Solving for alpha.water
MULES: Correcting alpha.steam
MULES: Correcting alpha.water
steam fraction, min, max = 0.9900056888 0.9900056888 0.9900056888
water fraction, min, max = 0.009994311199 0.009994311199 0.009994311199
Phase-sum volume fraction, min, max = 1 1 1
MULES: Solving for alpha.steam
MULES: Solving for alpha.water
MULES: Correcting alpha.steam
MULES: Correcting alpha.water
steam fraction, min, max = 0.9900113744 0.9900113744 0.9900113744
water fraction, min, max = 0.009988625635 0.009988625635 0.009988625635
Phase-sum volume fraction, min, max = 1 1 1
MULES: Solving for alpha.steam
MULES: Solving for alpha.water
MULES: Correcting alpha.steam
MULES: Correcting alpha.water
steam fraction, min, max = 0.9900170567 0.9900170567 0.9900170567
water fraction, min, max = 0.009982943304 0.009982943304 0.009982943304
Phase-sum volume fraction, min, max = 1 1 1
Constructing momentum equations
diagonal:  Solving for h.steam, Initial residual = 0, Final residual = 0, No Iterations 0
diagonal:  Solving for h.water, Initial residual = 0, Final residual = 0, No Iterations 0
steam min/max T 382.2704188 - 382.2704188
water min/max T 379.091029 - 379.091029
heatTransferLimitedPhaseChange: phaseChange
    min/mean/max Tsat = 372.76/372.76/372.76
    min/mean/max mDot = -3.506333489/-3.506333489/-3.506333489
diagonal:  Solving for p_rgh, Initial residual = 0, Final residual = 0, No Iterations 0
PIMPLE: Iteration 3
heatTransferLimitedPhaseChange: phaseChange
    min/mean/max Tsat = 372.76/372.76/372.76
    min/mean/max mDot = -3.506334483/-3.506334483/-3.506334483
MULES: Solving for alpha.steam
MULES: Solving for alpha.water
MULES: Correcting alpha.steam
MULES: Correcting alpha.water
steam fraction, min, max = 0.9900056967 0.9900056967 0.9900056967
water fraction, min, max = 0.009994303273 0.009994303273 0.009994303273
Phase-sum volume fraction, min, max = 1 1 1
MULES: Solving for alpha.steam
MULES: Solving for alpha.water
MULES: Correcting alpha.steam
MULES: Correcting alpha.water
steam fraction, min, max = 0.9900113902 0.9900113902 0.9900113902
water fraction, min, max = 0.00998860979 0.00998860979 0.00998860979
Phase-sum volume fraction, min, max = 1 1 1
MULES: Solving for alpha.steam
MULES: Solving for alpha.water
MULES: Correcting alpha.steam
MULES: Correcting alpha.water
steam fraction, min, max = 0.9900170804 0.9900170804 0.9900170804
water fraction, min, max = 0.009982919551 0.009982919551 0.009982919551
Phase-sum volume fraction, min, max = 1 1 1
Constructing momentum equations
diagonal:  Solving for h.steam, Initial residual = 0, Final residual = 0, No Iterations 0
diagonal:  Solving for h.water, Initial residual = 0, Final residual = 0, No Iterations 0
steam min/max T 382.7967102 - 382.7967102
water min/max T 379.0924613 - 379.0924613
heatTransferLimitedPhaseChange: phaseChange
    min/mean/max Tsat = 372.76/372.76/372.76
    min/mean/max mDot = -3.508357525/-3.508357525/-3.508357525
diagonal:  Solving for p_rgh, Initial residual = 0, Final residual = 0, No Iterations 0
PIMPLE: Iteration 4
heatTransferLimitedPhaseChange: phaseChange
    min/mean/max Tsat = 372.76/372.76/372.76
    min/mean/max mDot = -3.508357744/-3.508357744/-3.508357744
MULES: Solving for alpha.steam
MULES: Solving for alpha.water
MULES: Correcting alpha.steam
MULES: Correcting alpha.water
steam fraction, min, max = 0.9900057 0.9900057 0.9900057
water fraction, min, max = 0.009994299972 0.009994299972 0.009994299972
Phase-sum volume fraction, min, max = 1 1 1
MULES: Solving for alpha.steam
MULES: Solving for alpha.water
MULES: Correcting alpha.steam
MULES: Correcting alpha.water
steam fraction, min, max = 0.9900113968 0.9900113968 0.9900113968
water fraction, min, max = 0.009988603194 0.009988603194 0.009988603194
Phase-sum volume fraction, min, max = 1 1 1
MULES: Solving for alpha.steam
MULES: Solving for alpha.water
MULES: Correcting alpha.steam
MULES: Correcting alpha.water
steam fraction, min, max = 0.9900170903 0.9900170903 0.9900170903
water fraction, min, max = 0.009982909662 0.009982909662 0.009982909662
Phase-sum volume fraction, min, max = 1 1 1
Constructing momentum equations
diagonal:  Solving for h.steam, Initial residual = 0, Final residual = 0, No Iterations 0
diagonal:  Solving for h.water, Initial residual = 0, Final residual = 0, No Iterations 0
steam min/max T 382.91248 - 382.91248
water min/max T 379.0924821 - 379.0924821
heatTransferLimitedPhaseChange: phaseChange
    min/mean/max Tsat = 372.76/372.76/372.76
    min/mean/max mDot = -3.508639198/-3.508639198/-3.508639198
diagonal:  Solving for p_rgh, Initial residual = 0, Final residual = 0, No Iterations 0
PIMPLE: Iteration 5
heatTransferLimitedPhaseChange: phaseChange
    min/mean/max Tsat = 372.76/372.76/372.76
    min/mean/max mDot = -3.508639246/-3.508639246/-3.508639246
MULES: Solving for alpha.steam
MULES: Solving for alpha.water
MULES: Correcting alpha.steam
MULES: Correcting alpha.water
steam fraction, min, max = 0.9900057005 0.9900057005 0.9900057005
water fraction, min, max = 0.009994299509 0.009994299509 0.009994299509
Phase-sum volume fraction, min, max = 1 1 1
MULES: Solving for alpha.steam
MULES: Solving for alpha.water
MULES: Correcting alpha.steam
MULES: Correcting alpha.water
steam fraction, min, max = 0.9900113977 0.9900113977 0.9900113977
water fraction, min, max = 0.009988602268 0.009988602268 0.009988602268
Phase-sum volume fraction, min, max = 1 1 1
MULES: Solving for alpha.steam
MULES: Solving for alpha.water
MULES: Correcting alpha.steam
MULES: Correcting alpha.water
steam fraction, min, max = 0.9900170917 0.9900170917 0.9900170917
water fraction, min, max = 0.009982908275 0.009982908275 0.009982908275
Phase-sum volume fraction, min, max = 1 1 1
Constructing momentum equations
diagonal:  Solving for h.steam, Initial residual = 0, Final residual = 0, No Iterations 0
diagonal:  Solving for h.water, Initial residual = 0, Final residual = 0, No Iterations 0
steam min/max T 382.937826 - 382.937826
water min/max T 379.0924866 - 379.0924866
heatTransferLimitedPhaseChange: phaseChange
    min/mean/max Tsat = 372.76/372.76/372.76
    min/mean/max mDot = -3.508701117/-3.508701117/-3.508701117
diagonal:  Solving for p_rgh, Initial residual = 0, Final residual = 0, No Iterations 0
ExecutionTime = 0.162779 s  ClockTime = 0 s

Courant Number mean: 0 max: 0
Time = 0.01s

PIMPLE: Iteration 1
heatTransferLimitedPhaseChange: phaseChange
    min/mean/max Tsat = 372.76/372.76/372.76
    min/mean/max mDot = -3.508701128/-3.508701128/-3.508701128
MULES: Solving for alpha.steam
MULES: Solving for alpha.water
MULES: Correcting alpha.steam
MULES: Correcting alpha.water
steam fraction, min, max = 0.9900227826 0.9900227826 0.9900227826
water fraction, min, max = 0.009977217426 0.009977217426 0.009977217426
Phase-sum volume fraction, min, max = 1 1 1
MULES: Solving for alpha.steam
MULES: Solving for alpha.water
MULES: Correcting alpha.steam
MULES: Correcting alpha.water
steam fraction, min, max = 0.9900284702 0.9900284702 0.9900284702
water fraction, min, max = 0.009971529822 0.009971529822 0.009971529822
Phase-sum volume fraction, min, max = 1 1 1
MULES: Solving for alpha.steam
MULES: Solving for alpha.water
MULES: Correcting alpha.steam
MULES: Correcting alpha.water
steam fraction, min, max = 0.9900341545 0.9900341545 0.9900341545
water fraction, min, max = 0.009965845459 0.009965845459 0.009965845459
Phase-sum volume fraction, min, max = 1 1 1
Constructing momentum equations
diagonal:  Solving for h.steam, Initial residual = 0, Final residual = 0, No Iterations 0
diagonal:  Solving for h.water, Initial residual = 0, Final residual = 0, No Iterations 0
steam min/max T 385.6514709 - 385.6514709
water min/max T 378.2987524 - 378.2987524
heatTransferLimitedPhaseChange: phaseChange
    min/mean/max Tsat = 372.76/372.76/372.76
    min/mean/max mDot = -3.073071346/-3.073071346/-3.073071346
diagonal:  Solving for p_rgh, Initial residual = 0, Final residual = 0, No Iterations 0
PIMPLE: Iteration 2
heatTransferLimitedPhaseChange: phaseChange
    min/mean/max Tsat = 372.76/372.76/372.76
    min/mean/max mDot = -3.073075982/-3.073075982/-3.073075982
MULES: Solving for alpha.steam
MULES: Solving for alpha.water
MULES: Correcting alpha.steam
MULES: Correcting alpha.water
steam fraction, min, max = 0.9900220849 0.9900220849 0.9900220849
water fraction, min, max = 0.009977915102 0.009977915102 0.009977915102
Phase-sum volume fraction, min, max = 1 1 1
MULES: Solving for alpha.steam
MULES: Solving for alpha.water
MULES: Correcting alpha.steam
MULES: Correcting alpha.water
steam fraction, min, max = 0.9900270756 0.9900270756 0.9900270756
water fraction, min, max = 0.009972924427 0.009972924427 0.009972924427
Phase-sum volume fraction, min, max = 1 1 1
MULES: Solving for alpha.steam
MULES: Solving for alpha.water
MULES: Correcting alpha.steam
MULES: Correcting alpha.water
steam fraction, min, max = 0.9900320638 0.9900320638 0.9900320638
water fraction, min, max = 0.009967936247 0.009967936247 0.009967936247
Phase-sum volume fraction, min, max = 1 1 1
Constructing momentum equations
diagonal:  Solving for h.steam, Initial residual = 0, Final residual = 0, No Iterations 0
diagonal:  Solving for h.water, Initial residual = 0, Final residual = 0, No Iterations 0
steam min/max T 385.3378874 - 385.3378874
water min/max T 378.2981151 - 378.2981151
heatTransferLimitedPhaseChange: phaseChange
    min/mean/max Tsat = 372.76/372.76/372.76
    min/mean/max mDot = -3.072630938/-3.072630938/-3.072630938
diagonal:  Solving for p_rgh, Initial residual = 0, Final residual = 0, No Iterations 0
PIMPLE: Iteration 3
heatTransferLimitedPhaseChange: phaseChange
    min/mean/max Tsat = 372.76/372.76/372.76
    min/mean/max mDot = -3.072630821/-3.072630821/-3.072630821
MULES: Solving for alpha.steam
MULES: Solving for alpha.water
MULES: Correcting alpha.steam
MULES: Correcting alpha.water
steam fraction, min, max = 0.9900220831 0.9900220831 0.9900220831
water fraction, min, max = 0.009977916864 0.009977916864 0.009977916864
Phase-sum volume fraction, min, max = 1 1 1
MULES: Solving for alpha.steam
MULES: Solving for alpha.water
MULES: Correcting alpha.steam
MULES: Correcting alpha.water
steam fraction, min, max = 0.9900270721 0.9900270721 0.9900270721
water fraction, min, max = 0.009972927949 0.009972927949 0.009972927949
Phase-sum volume fraction, min, max = 1 1 1
MULES: Solving for alpha.steam
MULES: Solving for alpha.water
MULES: Correcting alpha.steam
MULES: Correcting alpha.water
steam fraction, min, max = 0.9900320585 0.9900320585 0.9900320585
water fraction, min, max = 0.009967941528 0.009967941528 0.009967941528
Phase-sum volume fraction, min, max = 1 1 1
Constructing momentum equations
diagonal:  Solving for h.steam, Initial residual = 0, Final residual = 0, No Iterations 0
diagonal:  Solving for h.water, Initial residual = 0, Final residual = 0, No Iterations 0
steam min/max T 385.2693976 - 385.2693976
water min/max T 378.2980729 - 378.2980729
heatTransferLimitedPhaseChange: phaseChange
    min/mean/max Tsat = 372.76/372.76/372.76
    min/mean/max mDot = -3.072447714/-3.072447714/-3.072447714
diagonal:  Solving for p_rgh, Initial residual = 0, Final residual = 0, No Iterations 0
PIMPLE: Iteration 4
heatTransferLimitedPhaseChange: phaseChange
    min/mean/max Tsat = 372.76/372.76/372.76
    min/mean/max mDot = -3.072447689/-3.072447689/-3.072447689
MULES: Solving for alpha.steam
MULES: Solving for alpha.water
MULES: Correcting alpha.steam
MULES: Correcting alpha.water
steam fraction, min, max = 0.9900220828 0.9900220828 0.9900220828
water fraction, min, max = 0.009977917164 0.009977917164 0.009977917164
Phase-sum volume fraction, min, max = 1 1 1
MULES: Solving for alpha.steam
MULES: Solving for alpha.water
MULES: Correcting alpha.steam
MULES: Correcting alpha.water
steam fraction, min, max = 0.9900270715 0.9900270715 0.9900270715
water fraction, min, max = 0.009972928549 0.009972928549 0.009972928549
Phase-sum volume fraction, min, max = 1 1 1
MULES: Solving for alpha.steam
MULES: Solving for alpha.water
MULES: Correcting alpha.steam
MULES: Correcting alpha.water
steam fraction, min, max = 0.9900320576 0.9900320576 0.9900320576
water fraction, min, max = 0.009967942427 0.009967942427 0.009967942427
Phase-sum volume fraction, min, max = 1 1 1
Constructing momentum equations
diagonal:  Solving for h.steam, Initial residual = 0, Final residual = 0, No Iterations 0
diagonal:  Solving for h.water, Initial residual = 0, Final residual = 0, No Iterations 0
steam min/max T 385.2543891 - 385.2543891
water min/max T 378.2980703 - 378.2980703
heatTransferLimitedPhaseChange: phaseChange
    min/mean/max Tsat = 372.76/372.76/372.76
    min/mean/max mDot = -3.072411119/-3.072411119/-3.072411119
diagonal:  Solving for p_rgh, Initial residual = 0, Final residual = 0, No Iterations 0
PIMPLE: Iteration 5
heatTransferLimitedPhaseChange: phaseChange
    min/mean/max Tsat = 372.76/372.76/372.76
    min/mean/max mDot = -3.072411113/-3.072411113/-3.072411113
MULES: Solving for alpha.steam
MULES: Solving for alpha.water
MULES: Correcting alpha.steam
MULES: Correcting alpha.water
steam fraction, min, max = 0.9900220828 0.9900220828 0.9900220828
water fraction, min, max = 0.009977917224 0.009977917224 0.009977917224
Phase-sum volume fraction, min, max = 1 1 1
MULES: Solving for alpha.steam
MULES: Solving for alpha.water
MULES: Correcting alpha.steam
MULES: Correcting alpha.water
steam fraction, min, max = 0.9900270713 0.9900270713 0.9900270713
water fraction, min, max = 0.009972928668 0.009972928668 0.009972928668
Phase-sum volume fraction, min, max = 1 1 1
MULES: Solving for alpha.steam
MULES: Solving for alpha.water
MULES: Correcting alpha.steam
MULES: Correcting alpha.water
steam fraction, min, max = 0.9900320574 0.9900320574 0.9900320574
water fraction, min, max = 0.009967942607 0.009967942607 0.009967942607
Phase-sum volume fraction, min, max = 1 1 1
Constructing momentum equations
diagonal:  Solving for h.steam, Initial residual = 0, Final residual = 0, No Iterations 0
diagonal:  Solving for h.water, Initial residual = 0, Final residual = 0, No Iterations 0
steam min/max T 385.2511027 - 385.2511027
water min/max T 378.2980697 - 378.2980697
heatTransferLimitedPhaseChange: phaseChange
    min/mean/max Tsat = 372.76/372.76/372.76
    min/mean/max mDot = -3.072403114/-3.072403114/-3.072403114
diagonal:  Solving for p_rgh, Initial residual = 0, Final residual = 0, No Iterations 0
ExecutionTime = 0.178048 s  ClockTime = 0 s

Courant Number mean: 0 max: 0
Time = 0.015s

PIMPLE: Iteration 1
heatTransferLimitedPhaseChange: phaseChange
    min/mean/max Tsat = 372.76/372.76/372.76
    min/mean/max mDot = -3.072403113/-3.072403113/-3.072403113
MULES: Solving for alpha.steam
MULES: Solving for alpha.water
MULES: Correcting alpha.steam
MULES: Correcting alpha.water
steam fraction, min, max = 0.9900370409 0.9900370409 0.9900370409
water fraction, min, max = 0.009962959051 0.009962959051 0.009962959051
Phase-sum volume fraction, min, max = 1 1 1
MULES: Solving for alpha.steam
MULES: Solving for alpha.water
MULES: Correcting alpha.steam
MULES: Correcting alpha.water
steam fraction, min, max = 0.990042022 0.990042022 0.990042022
water fraction, min, max = 0.009957977987 0.009957977987 0.009957977987
Phase-sum volume fraction, min, max = 1 1 1
MULES: Solving for alpha.steam
MULES: Solving for alpha.water
MULES: Correcting alpha.steam
MULES: Correcting alpha.water
steam fraction, min, max = 0.9900470006 0.9900470006 0.9900470006
water fraction, min, max = 0.009952999413 0.009952999413 0.009952999413
Phase-sum volume fraction, min, max = 1 1 1
Constructing momentum equations
diagonal:  Solving for h.steam, Initial residual = 0, Final residual = 0, No Iterations 0
diagonal:  Solving for h.water, Initial residual = 0, Final residual = 0, No Iterations 0
steam min/max T 387.4030149 - 387.4030149
water min/max T 377.6034102 - 377.6034102
heatTransferLimitedPhaseChange: phaseChange
    min/mean/max Tsat = 372.76/372.76/372.76
    min/mean/max mDot = -2.691750589/-2.691750589/-2.691750589
diagonal:  Solving for p_rgh, Initial residual = 0, Final residual = 0, No Iterations 0
PIMPLE: Iteration 2
heatTransferLimitedPhaseChange: phaseChange
    min/mean/max Tsat = 372.76/372.76/372.76
    min/mean/max mDot = -2.691754105/-2.691754105/-2.691754105
MULES: Solving for alpha.steam
MULES: Solving for alpha.water
MULES: Correcting alpha.steam
MULES: Correcting alpha.water
steam fraction, min, max = 0.9900364303 0.9900364303 0.9900364303
water fraction, min, max = 0.009963569661 0.009963569661 0.009963569661
Phase-sum volume fraction, min, max = 1 1 1
MULES: Solving for alpha.steam
MULES: Solving for alpha.water
MULES: Correcting alpha.steam
MULES: Correcting alpha.water
steam fraction, min, max = 0.9900408014 0.9900408014 0.9900408014
water fraction, min, max = 0.009959198633 0.009959198633 0.009959198633
Phase-sum volume fraction, min, max = 1 1 1
MULES: Solving for alpha.steam
MULES: Solving for alpha.water
MULES: Correcting alpha.steam
MULES: Correcting alpha.water
steam fraction, min, max = 0.9900451705 0.9900451705 0.9900451705
water fraction, min, max = 0.009954829523 0.009954829523 0.009954829523
Phase-sum volume fraction, min, max = 1 1 1
Constructing momentum equations
diagonal:  Solving for h.steam, Initial residual = 0, Final residual = 0, No Iterations 0
diagonal:  Solving for h.water, Initial residual = 0, Final residual = 0, No Iterations 0
steam min/max T 387.1434431 - 387.1434431
water min/max T 377.6028357 - 377.6028357
heatTransferLimitedPhaseChange: phaseChange
    min/mean/max Tsat = 372.76/372.76/372.76
    min/mean/max mDot = -2.691322367/-2.691322367/-2.691322367
diagonal:  Solving for p_rgh, Initial residual = 0, Final residual = 0, No Iterations 0
PIMPLE: Iteration 3
heatTransferLimitedPhaseChange: phaseChange
    min/mean/max Tsat = 372.76/372.76/372.76
    min/mean/max mDot = -2.691322281/-2.691322281/-2.691322281
MULES: Solving for alpha.steam
MULES: Solving for alpha.water
MULES: Correcting alpha.steam
MULES: Correcting alpha.water
steam fraction, min, max = 0.9900364288 0.9900364288 0.9900364288
water fraction, min, max = 0.009963571159 0.009963571159 0.009963571159
Phase-sum volume fraction, min, max = 1 1 1
MULES: Solving for alpha.steam
MULES: Solving for alpha.water
MULES: Correcting alpha.steam
MULES: Correcting alpha.water
steam fraction, min, max = 0.9900407984 0.9900407984 0.9900407984
water fraction, min, max = 0.009959201629 0.009959201629 0.009959201629
Phase-sum volume fraction, min, max = 1 1 1
MULES: Solving for alpha.steam
MULES: Solving for alpha.water
MULES: Correcting alpha.steam
MULES: Correcting alpha.water
steam fraction, min, max = 0.990045166 0.990045166 0.990045166
water fraction, min, max = 0.009954834016 0.009954834016 0.009954834016
Phase-sum volume fraction, min, max = 1 1 1
Constructing momentum equations
diagonal:  Solving for h.steam, Initial residual = 0, Final residual = 0, No Iterations 0
diagonal:  Solving for h.water, Initial residual = 0, Final residual = 0, No Iterations 0
steam min/max T 387.0866969 - 387.0866969
water min/max T 377.6028133 - 377.6028133
heatTransferLimitedPhaseChange: phaseChange
    min/mean/max Tsat = 372.76/372.76/372.76
    min/mean/max mDot = -2.691177558/-2.691177558/-2.691177558
diagonal:  Solving for p_rgh, Initial residual = 0, Final residual = 0, No Iterations 0
PIMPLE: Iteration 4
heatTransferLimitedPhaseChange: phaseChange
    min/mean/max Tsat = 372.76/372.76/372.76
    min/mean/max mDot = -2.691177539/-2.691177539/-2.691177539
MULES: Solving for alpha.steam
MULES: Solving for alpha.water
MULES: Correcting alpha.steam
MULES: Correcting alpha.water
steam fraction, min, max = 0.9900364286 0.9900364286 0.9900364286
water fraction, min, max = 0.009963571397 0.009963571397 0.009963571397
Phase-sum volume fraction, min, max = 1 1 1
MULES: Solving for alpha.steam
MULES: Solving for alpha.water
MULES: Correcting alpha.steam
MULES: Correcting alpha.water
steam fraction, min, max = 0.9900407979 0.9900407979 0.9900407979
water fraction, min, max = 0.009959202103 0.009959202103 0.009959202103
Phase-sum volume fraction, min, max = 1 1 1
MULES: Solving for alpha.steam
MULES: Solving for alpha.water
MULES: Correcting alpha.steam
MULES: Correcting alpha.water
steam fraction, min, max = 0.9900451653 0.9900451653 0.9900451653
water fraction, min, max = 0.009954834726 0.009954834726 0.009954834726
Phase-sum volume fraction, min, max = 1 1 1
Constructing momentum equations
diagonal:  Solving for h.steam, Initial residual = 0, Final residual = 0, No Iterations 0
diagonal:  Solving for h.water, Initial residual = 0, Final residual = 0, No Iterations 0
steam min/max T 387.0742652 - 387.0742652
water min/max T 377.6028112 - 377.6028112
heatTransferLimitedPhaseChange: phaseChange
    min/mean/max Tsat = 372.76/372.76/372.76
    min/mean/max mDot = -2.691147268/-2.691147268/-2.691147268
diagonal:  Solving for p_rgh, Initial residual = 0, Final residual = 0, No Iterations 0
PIMPLE: Iteration 5
heatTransferLimitedPhaseChange: phaseChange
    min/mean/max Tsat = 372.76/372.76/372.76
    min/mean/max mDot = -2.691147264/-2.691147264/-2.691147264
MULES: Solving for alpha.steam
MULES: Solving for alpha.water
MULES: Correcting alpha.steam
MULES: Correcting alpha.water
steam fraction, min, max = 0.9900364286 0.9900364286 0.9900364286
water fraction, min, max = 0.009963571446 0.009963571446 0.009963571446
Phase-sum volume fraction, min, max = 1 1 1
MULES: Solving for alpha.steam
MULES: Solving for alpha.water
MULES: Correcting alpha.steam
MULES: Correcting alpha.water
steam fraction, min, max = 0.9900407978 0.9900407978 0.9900407978
water fraction, min, max = 0.009959202202 0.009959202202 0.009959202202
Phase-sum volume fraction, min, max = 1 1 1
MULES: Solving for alpha.steam
MULES: Solving for alpha.water
MULES: Correcting alpha.steam
MULES: Correcting alpha.water
steam fraction, min, max = 0.9900451651 0.9900451651 0.9900451651
water fraction, min, max = 0.009954834875 0.009954834875 0.009954834875
Phase-sum volume fraction, min, max = 1 1 1
Constructing momentum equations
diagonal:  Solving for h.steam, Initial residual = 0, Final residual = 0, No Iterations 0
diagonal:  Solving for h.water, Initial residual = 0, Final residual = 0, No Iterations 0
steam min/max T 387.0715427 - 387.0715427
water min/max T 377.6028107 - 377.6028107
heatTransferLimitedPhaseChange: phaseChange
    min/mean/max Tsat = 372.76/372.76/372.76
    min/mean/max mDot = -2.691140643/-2.691140643/-2.691140643
diagonal:  Solving for p_rgh, Initial residual = 0, Final residual = 0, No Iterations 0
ExecutionTime = 0.19564 s  ClockTime = 0 s

Courant Number mean: 0 max: 0
Time = 0.02s

PIMPLE: Iteration 1
heatTransferLimitedPhaseChange: phaseChange
    min/mean/max Tsat = 372.76/372.76/372.76
    min/mean/max mDot = -2.691140643/-2.691140643/-2.691140643
MULES: Solving for alpha.steam
MULES: Solving for alpha.water
MULES: Correcting alpha.steam
MULES: Correcting alpha.water
steam fraction, min, max = 0.9900495305 0.9900495305 0.9900495305
water fraction, min, max = 0.009950469473 0.009950469473 0.009950469473
Phase-sum volume fraction, min, max = 1 1 1
MULES: Solving for alpha.steam
MULES: Solving for alpha.water
MULES: Correcting alpha.steam
MULES: Correcting alpha.water
steam fraction, min, max = 0.990053894 0.990053894 0.990053894
water fraction, min, max = 0.009946105986 0.009946105986 0.009946105986
Phase-sum volume fraction, min, max = 1 1 1
MULES: Solving for alpha.steam
MULES: Solving for alpha.water
MULES: Correcting alpha.steam
MULES: Correcting alpha.water
steam fraction, min, max = 0.9900582556 0.9900582556 0.9900582556
water fraction, min, max = 0.009941744412 0.009941744412 0.009941744412
Phase-sum volume fraction, min, max = 1 1 1
Constructing momentum equations
diagonal:  Solving for h.steam, Initial residual = 0, Final residual = 0, No Iterations 0
diagonal:  Solving for h.water, Initial residual = 0, Final residual = 0, No Iterations 0
steam min/max T 388.7782737 - 388.7782737
water min/max T 376.9949747 - 376.9949747
heatTransferLimitedPhaseChange: phaseChange
    min/mean/max Tsat = 372.76/372.76/372.76
    min/mean/max mDot = -2.35851336/-2.35851336/-2.35851336
diagonal:  Solving for p_rgh, Initial residual = 0, Final residual = 0, No Iterations 0
PIMPLE: Iteration 2
heatTransferLimitedPhaseChange: phaseChange
    min/mean/max Tsat = 372.76/372.76/372.76
    min/mean/max mDot = -2.358516027/-2.358516027/-2.358516027
MULES: Solving for alpha.steam
MULES: Solving for alpha.water
MULES: Correcting alpha.steam
MULES: Correcting alpha.water
steam fraction, min, max = 0.9900489962 0.9900489962 0.9900489962
water fraction, min, max = 0.009951003797 0.009951003797 0.009951003797
Phase-sum volume fraction, min, max = 1 1 1
MULES: Solving for alpha.steam
MULES: Solving for alpha.water
MULES: Correcting alpha.steam
MULES: Correcting alpha.water
steam fraction, min, max = 0.9900528258 0.9900528258 0.9900528258
water fraction, min, max = 0.009947174194 0.009947174194 0.009947174194
Phase-sum volume fraction, min, max = 1 1 1
MULES: Solving for alpha.steam
MULES: Solving for alpha.water
MULES: Correcting alpha.steam
MULES: Correcting alpha.water
steam fraction, min, max = 0.9900566539 0.9900566539 0.9900566539
water fraction, min, max = 0.009943346065 0.009943346065 0.009943346065
Phase-sum volume fraction, min, max = 1 1 1
Constructing momentum equations
diagonal:  Solving for h.steam, Initial residual = 0, Final residual = 0, No Iterations 0
diagonal:  Solving for h.water, Initial residual = 0, Final residual = 0, No Iterations 0
steam min/max T 388.562657 - 388.562657
water min/max T 376.9944602 - 376.9944602
heatTransferLimitedPhaseChange: phaseChange
    min/mean/max Tsat = 372.76/372.76/372.76
    min/mean/max mDot = -2.358106683/-2.358106683/-2.358106683
diagonal:  Solving for p_rgh, Initial residual = 0, Final residual = 0, No Iterations 0
PIMPLE: Iteration 3
heatTransferLimitedPhaseChange: phaseChange
    min/mean/max Tsat = 372.76/372.76/372.76
    min/mean/max mDot = -2.358106619/-2.358106619/-2.358106619
MULES: Solving for alpha.steam
MULES: Solving for alpha.water
MULES: Correcting alpha.steam
MULES: Correcting alpha.water
steam fraction, min, max = 0.9900489949 0.9900489949 0.9900489949
water fraction, min, max = 0.009951005074 0.009951005074 0.009951005074
Phase-sum volume fraction, min, max = 1 1 1
MULES: Solving for alpha.steam
MULES: Solving for alpha.water
MULES: Correcting alpha.steam
MULES: Correcting alpha.water
steam fraction, min, max = 0.9900528233 0.9900528233 0.9900528233
water fraction, min, max = 0.009947176747 0.009947176747 0.009947176747
Phase-sum volume fraction, min, max = 1 1 1
MULES: Solving for alpha.steam
MULES: Solving for alpha.water
MULES: Correcting alpha.steam
MULES: Correcting alpha.water
steam fraction, min, max = 0.9900566501 0.9900566501 0.9900566501
water fraction, min, max = 0.009943349893 0.009943349893 0.009943349893
Phase-sum volume fraction, min, max = 1 1 1
Constructing momentum equations
diagonal:  Solving for h.steam, Initial residual = 0, Final residual = 0, No Iterations 0
diagonal:  Solving for h.water, Initial residual = 0, Final residual = 0, No Iterations 0
steam min/max T 388.5154814 - 388.5154814
water min/max T 376.9944517 - 376.9944517
heatTransferLimitedPhaseChange: phaseChange
    min/mean/max Tsat = 372.76/372.76/372.76
    min/mean/max mDot = -2.357991902/-2.357991902/-2.357991902
diagonal:  Solving for p_rgh, Initial residual = 0, Final residual = 0, No Iterations 0
PIMPLE: Iteration 4
heatTransferLimitedPhaseChange: phaseChange
    min/mean/max Tsat = 372.76/372.76/372.76
    min/mean/max mDot = -2.357991888/-2.357991888/-2.357991888
MULES: Solving for alpha.steam
MULES: Solving for alpha.water
MULES: Correcting alpha.steam
MULES: Correcting alpha.water
steam fraction, min, max = 0.9900489947 0.9900489947 0.9900489947
water fraction, min, max = 0.009951005262 0.009951005262 0.009951005262
Phase-sum volume fraction, min, max = 1 1 1
MULES: Solving for alpha.steam
MULES: Solving for alpha.water
MULES: Correcting alpha.steam
MULES: Correcting alpha.water
steam fraction, min, max = 0.9900528229 0.9900528229 0.9900528229
water fraction, min, max = 0.009947177123 0.009947177123 0.009947177123
Phase-sum volume fraction, min, max = 1 1 1
MULES: Solving for alpha.steam
MULES: Solving for alpha.water
MULES: Correcting alpha.steam
MULES: Correcting alpha.water
steam fraction, min, max = 0.9900566495 0.9900566495 0.9900566495
water fraction, min, max = 0.009943350456 0.009943350456 0.009943350456
Phase-sum volume fraction, min, max = 1 1 1
Constructing momentum equations
diagonal:  Solving for h.steam, Initial residual = 0, Final residual = 0, No Iterations 0
diagonal:  Solving for h.water, Initial residual = 0, Final residual = 0, No Iterations 0
steam min/max T 388.5051487 - 388.5051487
water min/max T 376.99445 - 376.99445
heatTransferLimitedPhaseChange: phaseChange
    min/mean/max Tsat = 372.76/372.76/372.76
    min/mean/max mDot = -2.357966744/-2.357966744/-2.357966744
diagonal:  Solving for p_rgh, Initial residual = 0, Final residual = 0, No Iterations 0
PIMPLE: Iteration 5
heatTransferLimitedPhaseChange: phaseChange
    min/mean/max Tsat = 372.76/372.76/372.76
    min/mean/max mDot = -2.357966741/-2.357966741/-2.357966741
MULES: Solving for alpha.steam
MULES: Solving for alpha.water
MULES: Correcting alpha.steam
MULES: Correcting alpha.water
steam fraction, min, max = 0.9900489947 0.9900489947 0.9900489947
water fraction, min, max = 0.009951005303 0.009951005303 0.009951005303
Phase-sum volume fraction, min, max = 1 1 1
MULES: Solving for alpha.steam
MULES: Solving for alpha.water
MULES: Correcting alpha.steam
MULES: Correcting alpha.water
steam fraction, min, max = 0.9900528228 0.9900528228 0.9900528228
water fraction, min, max = 0.009947177205 0.009947177205 0.009947177205
Phase-sum volume fraction, min, max = 1 1 1
MULES: Solving for alpha.steam
MULES: Solving for alpha.water
MULES: Correcting alpha.steam
MULES: Correcting alpha.water
steam fraction, min, max = 0.9900566494 0.9900566494 0.9900566494
water fraction, min, max = 0.009943350579 0.009943350579 0.009943350579
Phase-sum volume fraction, min, max = 1 1 1
Constructing momentum equations
diagonal:  Solving for h.steam, Initial residual = 0, Final residual = 0, No Iterations 0
diagonal:  Solving for h.water, Initial residual = 0, Final residual = 0, No Iterations 0
steam min/max T 388.5028856 - 388.5028856
water min/max T 376.9944496 - 376.9944496
heatTransferLimitedPhaseChange: phaseChange
    min/mean/max Tsat = 372.76/372.76/372.76
    min/mean/max mDot = -2.357961242/-2.357961242/-2.357961242
diagonal:  Solving for p_rgh, Initial residual = 0, Final residual = 0, No Iterations 0
ExecutionTime = 0.214914 s  ClockTime = 0 s

Courant Number mean: 0 max: 0
Time = 0.025s

PIMPLE: Iteration 1
heatTransferLimitedPhaseChange: phaseChange
    min/mean/max Tsat = 372.76/372.76/372.76
    min/mean/max mDot = -2.357961241/-2.357961241/-2.357961241
MULES: Solving for alpha.steam
MULES: Solving for alpha.water
MULES: Correcting alpha.steam
MULES: Correcting alpha.water
steam fraction, min, max = 0.9900604746 0.9900604746 0.9900604746
water fraction, min, max = 0.009939525434 0.009939525434 0.009939525434
Phase-sum volume fraction, min, max = 1 1 1
MULES: Solving for alpha.steam
MULES: Solving for alpha.water
MULES: Correcting alpha.steam
MULES: Correcting alpha.water
steam fraction, min, max = 0.9900642982 0.9900642982 0.9900642982
water fraction, min, max = 0.009935701761 0.009935701761 0.009935701761
Phase-sum volume fraction, min, max = 1 1 1
MULES: Solving for alpha.steam
MULES: Solving for alpha.water
MULES: Correcting alpha.steam
MULES: Correcting alpha.water
steam fraction, min, max = 0.9900681204 0.9900681204 0.9900681204
water fraction, min, max = 0.009931879559 0.009931879559 0.009931879559
Phase-sum volume fraction, min, max = 1 1 1
Constructing momentum equations
diagonal:  Solving for h.steam, Initial residual = 0, Final residual = 0, No Iterations 0
diagonal:  Solving for h.water, Initial residual = 0, Final residual = 0, No Iterations 0
steam min/max T 389.8536494 - 389.8536494
water min/max T 376.4626753 - 376.4626753
heatTransferLimitedPhaseChange: phaseChange
    min/mean/max Tsat = 372.76/372.76/372.76
    min/mean/max mDot = -2.067283792/-2.067283792/-2.067283792
diagonal:  Solving for p_rgh, Initial residual = 0, Final residual = 0, No Iterations 0
PIMPLE: Iteration 2
heatTransferLimitedPhaseChange: phaseChange
    min/mean/max Tsat = 372.76/372.76/372.76
    min/mean/max mDot = -2.067285816/-2.067285816/-2.067285816
MULES: Solving for alpha.steam
MULES: Solving for alpha.water
MULES: Correcting alpha.steam
MULES: Correcting alpha.water
steam fraction, min, max = 0.9900600071 0.9900600071 0.9900600071
water fraction, min, max = 0.009939992947 0.009939992947 0.009939992947
Phase-sum volume fraction, min, max = 1 1 1
MULES: Solving for alpha.steam
MULES: Solving for alpha.water
MULES: Correcting alpha.steam
MULES: Correcting alpha.water
steam fraction, min, max = 0.9900633636 0.9900633636 0.9900633636
water fraction, min, max = 0.00993663645 0.00993663645 0.00993663645
Phase-sum volume fraction, min, max = 1 1 1
MULES: Solving for alpha.steam
MULES: Solving for alpha.water
MULES: Correcting alpha.steam
MULES: Correcting alpha.water
steam fraction, min, max = 0.9900667189 0.9900667189 0.9900667189
water fraction, min, max = 0.009933281085 0.009933281085 0.009933281085
Phase-sum volume fraction, min, max = 1 1 1
Constructing momentum equations
diagonal:  Solving for h.steam, Initial residual = 0, Final residual = 0, No Iterations 0
diagonal:  Solving for h.water, Initial residual = 0, Final residual = 0, No Iterations 0
steam min/max T 389.6733176 - 389.6733176
water min/max T 376.4622167 - 376.4622167
heatTransferLimitedPhaseChange: phaseChange
    min/mean/max Tsat = 372.76/372.76/372.76
    min/mean/max mDot = -2.066902613/-2.066902613/-2.066902613
diagonal:  Solving for p_rgh, Initial residual = 0, Final residual = 0, No Iterations 0
PIMPLE: Iteration 3
heatTransferLimitedPhaseChange: phaseChange
    min/mean/max Tsat = 372.76/372.76/372.76
    min/mean/max mDot = -2.066902566/-2.066902566/-2.066902566
MULES: Solving for alpha.steam
MULES: Solving for alpha.water
MULES: Correcting alpha.steam
MULES: Correcting alpha.water
steam fraction, min, max = 0.990060006 0.990060006 0.990060006
water fraction, min, max = 0.00993999404 0.00993999404 0.00993999404
Phase-sum volume fraction, min, max = 1 1 1
MULES: Solving for alpha.steam
MULES: Solving for alpha.water
MULES: Correcting alpha.steam
MULES: Correcting alpha.water
steam fraction, min, max = 0.9900633614 0.9900633614 0.9900633614
water fraction, min, max = 0.009936638634 0.009936638634 0.009936638634
Phase-sum volume fraction, min, max = 1 1 1
MULES: Solving for alpha.steam
MULES: Solving for alpha.water
MULES: Correcting alpha.steam
MULES: Correcting alpha.water
steam fraction, min, max = 0.9900667156 0.9900667156 0.9900667156
water fraction, min, max = 0.00993328436 0.00993328436 0.00993328436
Phase-sum volume fraction, min, max = 1 1 1
Constructing momentum equations
diagonal:  Solving for h.steam, Initial residual = 0, Final residual = 0, No Iterations 0
diagonal:  Solving for h.water, Initial residual = 0, Final residual = 0, No Iterations 0
steam min/max T 389.6338335 - 389.6338335
water min/max T 376.4622178 - 376.4622178
heatTransferLimitedPhaseChange: phaseChange
    min/mean/max Tsat = 372.76/372.76/372.76
    min/mean/max mDot = -2.066811031/-2.066811031/-2.066811031
diagonal:  Solving for p_rgh, Initial residual = 0, Final residual = 0, No Iterations 0
PIMPLE: Iteration 4
heatTransferLimitedPhaseChange: phaseChange
    min/mean/max Tsat = 372.76/372.76/372.76
    min/mean/max mDot = -2.06681102/-2.06681102/-2.06681102
MULES: Solving for alpha.steam
MULES: Solving for alpha.water
MULES: Correcting alpha.steam
MULES: Correcting alpha.water
steam fraction, min, max = 0.9900600058 0.9900600058 0.9900600058
water fraction, min, max = 0.00993999419 0.00993999419 0.00993999419
Phase-sum volume fraction, min, max = 1 1 1
MULES: Solving for alpha.steam
MULES: Solving for alpha.water
MULES: Correcting alpha.steam
MULES: Correcting alpha.water
steam fraction, min, max = 0.9900633611 0.9900633611 0.9900633611
water fraction, min, max = 0.009936638933 0.009936638933 0.009936638933
Phase-sum volume fraction, min, max = 1 1 1
MULES: Solving for alpha.steam
MULES: Solving for alpha.water
MULES: Correcting alpha.steam
MULES: Correcting alpha.water
steam fraction, min, max = 0.9900667152 0.9900667152 0.9900667152
water fraction, min, max = 0.009933284809 0.009933284809 0.009933284809
Phase-sum volume fraction, min, max = 1 1 1
Constructing momentum equations
diagonal:  Solving for h.steam, Initial residual = 0, Final residual = 0, No Iterations 0
diagonal:  Solving for h.water, Initial residual = 0, Final residual = 0, No Iterations 0
steam min/max T 389.6251871 - 389.6251871
water min/max T 376.4622163 - 376.4622163
heatTransferLimitedPhaseChange: phaseChange
    min/mean/max Tsat = 372.76/372.76/372.76
    min/mean/max mDot = -2.066789992/-2.066789992/-2.066789992
diagonal:  Solving for p_rgh, Initial residual = 0, Final residual = 0, No Iterations 0
PIMPLE: Iteration 5
heatTransferLimitedPhaseChange: phaseChange
    min/mean/max Tsat = 372.76/372.76/372.76
    min/mean/max mDot = -2.06678999/-2.06678999/-2.06678999
MULES: Solving for alpha.steam
MULES: Solving for alpha.water
MULES: Correcting alpha.steam
MULES: Correcting alpha.water
steam fraction, min, max = 0.9900600058 0.9900600058 0.9900600058
water fraction, min, max = 0.009939994224 0.009939994224 0.009939994224
Phase-sum volume fraction, min, max = 1 1 1
MULES: Solving for alpha.steam
MULES: Solving for alpha.water
MULES: Correcting alpha.steam
MULES: Correcting alpha.water
steam fraction, min, max = 0.990063361 0.990063361 0.990063361
water fraction, min, max = 0.009936639002 0.009936639002 0.009936639002
Phase-sum volume fraction, min, max = 1 1 1
MULES: Solving for alpha.steam
MULES: Solving for alpha.water
MULES: Correcting alpha.steam
MULES: Correcting alpha.water
steam fraction, min, max = 0.9900667151 0.9900667151 0.9900667151
water fraction, min, max = 0.009933284912 0.009933284912 0.009933284912
Phase-sum volume fraction, min, max = 1 1 1
Constructing momentum equations
diagonal:  Solving for h.steam, Initial residual = 0, Final residual = 0, No Iterations 0
diagonal:  Solving for h.water, Initial residual = 0, Final residual = 0, No Iterations 0
steam min/max T 389.6232931 - 389.6232931
water min/max T 376.462216 - 376.462216
heatTransferLimitedPhaseChange: phaseChange
    min/mean/max Tsat = 372.76/372.76/372.76
    min/mean/max mDot = -2.066785391/-2.066785391/-2.066785391
diagonal:  Solving for p_rgh, Initial residual = 0, Final residual = 0, No Iterations 0
ExecutionTime = 0.230242 s  ClockTime = 0 s

Courant Number mean: 0 max: 0
Time = 0.03s

PIMPLE: Iteration 1
heatTransferLimitedPhaseChange: phaseChange
    min/mean/max Tsat = 372.76/372.76/372.76
    min/mean/max mDot = -2.06678539/-2.06678539/-2.06678539
MULES: Solving for alpha.steam
MULES: Solving for alpha.water
MULES: Correcting alpha.steam
MULES: Correcting alpha.water
steam fraction, min, max = 0.990070068 0.990070068 0.990070068
water fraction, min, max = 0.009929931962 0.009929931962 0.009929931962
Phase-sum volume fraction, min, max = 1 1 1
MULES: Solving for alpha.steam
MULES: Solving for alpha.water
MULES: Correcting alpha.steam
MULES: Correcting alpha.water
steam fraction, min, max = 0.9900734199 0.9900734199 0.9900734199
water fraction, min, max = 0.009926580144 0.009926580144 0.009926580144
Phase-sum volume fraction, min, max = 1 1 1
MULES: Solving for alpha.steam
MULES: Solving for alpha.water
MULES: Correcting alpha.steam
MULES: Correcting alpha.water
steam fraction, min, max = 0.9900767705 0.9900767705 0.9900767705
water fraction, min, max = 0.009923229457 0.009923229457 0.009923229457
Phase-sum volume fraction, min, max = 1 1 1
Constructing momentum equations
diagonal:  Solving for h.steam, Initial residual = 0, Final residual = 0, No Iterations 0
diagonal:  Solving for h.water, Initial residual = 0, Final residual = 0, No Iterations 0
steam min/max T 390.6864937 - 390.6864937
water min/max T 375.9970542 - 375.9970542
heatTransferLimitedPhaseChange: phaseChange
    min/mean/max Tsat = 372.76/372.76/372.76
    min/mean/max mDot = -1.812748035/-1.812748035/-1.812748035
diagonal:  Solving for p_rgh, Initial residual = 0, Final residual = 0, No Iterations 0
PIMPLE: Iteration 2
heatTransferLimitedPhaseChange: phaseChange
    min/mean/max Tsat = 372.76/372.76/372.76
    min/mean/max mDot = -1.81274957/-1.81274957/-1.81274957
MULES: Solving for alpha.steam
MULES: Solving for alpha.water
MULES: Correcting alpha.steam
MULES: Correcting alpha.water
steam fraction, min, max = 0.990069659 0.990069659 0.990069659
water fraction, min, max = 0.009930340986 0.009930340986 0.009930340986
Phase-sum volume fraction, min, max = 1 1 1
MULES: Solving for alpha.steam
MULES: Solving for alpha.water
MULES: Correcting alpha.steam
MULES: Correcting alpha.water
steam fraction, min, max = 0.9900726021 0.9900726021 0.9900726021
water fraction, min, max = 0.009927397933 0.009927397933 0.009927397933
Phase-sum volume fraction, min, max = 1 1 1
MULES: Solving for alpha.steam
MULES: Solving for alpha.water
MULES: Correcting alpha.steam
MULES: Correcting alpha.water
steam fraction, min, max = 0.9900755442 0.9900755442 0.9900755442
water fraction, min, max = 0.009924455752 0.009924455752 0.009924455752
Phase-sum volume fraction, min, max = 1 1 1
Constructing momentum equations
diagonal:  Solving for h.steam, Initial residual = 0, Final residual = 0, No Iterations 0
diagonal:  Solving for h.water, Initial residual = 0, Final residual = 0, No Iterations 0
steam min/max T 390.5347811 - 390.5347811
water min/max T 375.9966473 - 375.9966473
heatTransferLimitedPhaseChange: phaseChange
    min/mean/max Tsat = 372.76/372.76/372.76
    min/mean/max mDot = -1.812394728/-1.812394728/-1.812394728
diagonal:  Solving for p_rgh, Initial residual = 0, Final residual = 0, No Iterations 0
PIMPLE: Iteration 3
heatTransferLimitedPhaseChange: phaseChange
    min/mean/max Tsat = 372.76/372.76/372.76
    min/mean/max mDot = -1.812394692/-1.812394692/-1.812394692
MULES: Solving for alpha.steam
MULES: Solving for alpha.water
MULES: Correcting alpha.steam
MULES: Correcting alpha.water
steam fraction, min, max = 0.9900696581 0.9900696581 0.9900696581
water fraction, min, max = 0.009930341923 0.009930341923 0.009930341923
Phase-sum volume fraction, min, max = 1 1 1
MULES: Solving for alpha.steam
MULES: Solving for alpha.water
MULES: Correcting alpha.steam
MULES: Correcting alpha.water
steam fraction, min, max = 0.9900726002 0.9900726002 0.9900726002
water fraction, min, max = 0.009927399807 0.009927399807 0.009927399807
Phase-sum volume fraction, min, max = 1 1 1
MULES: Solving for alpha.steam
MULES: Solving for alpha.water
MULES: Correcting alpha.steam
MULES: Correcting alpha.water
steam fraction, min, max = 0.9900755414 0.9900755414 0.9900755414
water fraction, min, max = 0.009924458562 0.009924458562 0.009924458562
Phase-sum volume fraction, min, max = 1 1 1
Constructing momentum equations
diagonal:  Solving for h.steam, Initial residual = 0, Final residual = 0, No Iterations 0
diagonal:  Solving for h.water, Initial residual = 0, Final residual = 0, No Iterations 0
steam min/max T 390.501542 - 390.501542
water min/max T 375.9966547 - 375.9966547
heatTransferLimitedPhaseChange: phaseChange
    min/mean/max Tsat = 372.76/372.76/372.76
    min/mean/max mDot = -1.812321171/-1.812321171/-1.812321171
diagonal:  Solving for p_rgh, Initial residual = 0, Final residual = 0, No Iterations 0
PIMPLE: Iteration 4
heatTransferLimitedPhaseChange: phaseChange
    min/mean/max Tsat = 372.76/372.76/372.76
    min/mean/max mDot = -1.812321163/-1.812321163/-1.812321163
MULES: Solving for alpha.steam
MULES: Solving for alpha.water
MULES: Correcting alpha.steam
MULES: Correcting alpha.water
steam fraction, min, max = 0.990069658 0.990069658 0.990069658
water fraction, min, max = 0.009930342044 0.009930342044 0.009930342044
Phase-sum volume fraction, min, max = 1 1 1
MULES: Solving for alpha.steam
MULES: Solving for alpha.water
MULES: Correcting alpha.steam
MULES: Correcting alpha.water
steam fraction, min, max = 0.9900726 0.9900726 0.9900726
water fraction, min, max = 0.009927400047 0.009927400047 0.009927400047
Phase-sum volume fraction, min, max = 1 1 1
MULES: Solving for alpha.steam
MULES: Solving for alpha.water
MULES: Correcting alpha.steam
MULES: Correcting alpha.water
steam fraction, min, max = 0.9900755411 0.9900755411 0.9900755411
water fraction, min, max = 0.009924458922 0.009924458922 0.009924458922
Phase-sum volume fraction, min, max = 1 1 1
Constructing momentum equations
diagonal:  Solving for h.steam, Initial residual = 0, Final residual = 0, No Iterations 0
diagonal:  Solving for h.water, Initial residual = 0, Final residual = 0, No Iterations 0
steam min/max T 390.4942644 - 390.4942644
water min/max T 375.9966534 - 375.9966534
heatTransferLimitedPhaseChange: phaseChange
    min/mean/max Tsat = 372.76/372.76/372.76
    min/mean/max mDot = -1.812303473/-1.812303473/-1.812303473
diagonal:  Solving for p_rgh, Initial residual = 0, Final residual = 0, No Iterations 0
PIMPLE: Iteration 5
heatTransferLimitedPhaseChange: phaseChange
    min/mean/max Tsat = 372.76/372.76/372.76
    min/mean/max mDot = -1.812303472/-1.812303472/-1.812303472
MULES: Solving for alpha.steam
MULES: Solving for alpha.water
MULES: Correcting alpha.steam
MULES: Correcting alpha.water
steam fraction, min, max = 0.9900696579 0.9900696579 0.9900696579
water fraction, min, max = 0.009930342073 0.009930342073 0.009930342073
Phase-sum volume fraction, min, max = 1 1 1
MULES: Solving for alpha.steam
MULES: Solving for alpha.water
MULES: Correcting alpha.steam
MULES: Correcting alpha.water
steam fraction, min, max = 0.9900725999 0.9900725999 0.9900725999
water fraction, min, max = 0.009927400105 0.009927400105 0.009927400105
Phase-sum volume fraction, min, max = 1 1 1
MULES: Solving for alpha.steam
MULES: Solving for alpha.water
MULES: Correcting alpha.steam
MULES: Correcting alpha.water
steam fraction, min, max = 0.990075541 0.990075541 0.990075541
water fraction, min, max = 0.009924459009 0.009924459009 0.009924459009
Phase-sum volume fraction, min, max = 1 1 1
Constructing momentum equations
diagonal:  Solving for h.steam, Initial residual = 0, Final residual = 0, No Iterations 0
diagonal:  Solving for h.water, Initial residual = 0, Final residual = 0, No Iterations 0
steam min/max T 390.49267 - 390.49267
water min/max T 375.9966532 - 375.9966532
heatTransferLimitedPhaseChange: phaseChange
    min/mean/max Tsat = 372.76/372.76/372.76
    min/mean/max mDot = -1.812299602/-1.812299602/-1.812299602
diagonal:  Solving for p_rgh, Initial residual = 0, Final residual = 0, No Iterations 0
ExecutionTime = 0.245415 s  ClockTime = 0 s

Courant Number mean: 0 max: 0
Time = 0.035s

PIMPLE: Iteration 1
heatTransferLimitedPhaseChange: phaseChange
    min/mean/max Tsat = 372.76/372.76/372.76
    min/mean/max mDot = -1.812299602/-1.812299602/-1.812299602
MULES: Solving for alpha.steam
MULES: Solving for alpha.water
MULES: Correcting alpha.steam
MULES: Correcting alpha.water
steam fraction, min, max = 0.9900784812 0.9900784812 0.9900784812
water fraction, min, max = 0.00992151879 0.00992151879 0.00992151879
Phase-sum volume fraction, min, max = 1 1 1
MULES: Solving for alpha.steam
MULES: Solving for alpha.water
MULES: Correcting alpha.steam
MULES: Correcting alpha.water
steam fraction, min, max = 0.9900814206 0.9900814206 0.9900814206
water fraction, min, max = 0.009918579442 0.009918579442 0.009918579442
Phase-sum volume fraction, min, max = 1 1 1
MULES: Solving for alpha.steam
MULES: Solving for alpha.water
MULES: Correcting alpha.steam
MULES: Correcting alpha.water
steam fraction, min, max = 0.990084359 0.990084359 0.990084359
water fraction, min, max = 0.009915640966 0.009915640966 0.009915640966
Phase-sum volume fraction, min, max = 1 1 1
Constructing momentum equations
diagonal:  Solving for h.steam, Initial residual = 0, Final residual = 0, No Iterations 0
diagonal:  Solving for h.water, Initial residual = 0, Final residual = 0, No Iterations 0
steam min/max T 391.3215399 - 391.3215399
water min/max T 375.5898123 - 375.5898123
heatTransferLimitedPhaseChange: phaseChange
    min/mean/max Tsat = 372.76/372.76/372.76
    min/mean/max mDot = -1.590263811/-1.590263811/-1.590263811
diagonal:  Solving for p_rgh, Initial residual = 0, Final residual = 0, No Iterations 0
PIMPLE: Iteration 2
heatTransferLimitedPhaseChange: phaseChange
    min/mean/max Tsat = 372.76/372.76/372.76
    min/mean/max mDot = -1.590264975/-1.590264975/-1.590264975
MULES: Solving for alpha.steam
MULES: Solving for alpha.water
MULES: Correcting alpha.steam
MULES: Correcting alpha.water
steam fraction, min, max = 0.9900781234 0.9900781234 0.9900781234
water fraction, min, max = 0.009921876626 0.009921876626 0.009921876626
Phase-sum volume fraction, min, max = 1 1 1
MULES: Solving for alpha.steam
MULES: Solving for alpha.water
MULES: Correcting alpha.steam
MULES: Correcting alpha.water
steam fraction, min, max = 0.9900807051 0.9900807051 0.9900807051
water fraction, min, max = 0.009919294916 0.009919294916 0.009919294916
Phase-sum volume fraction, min, max = 1 1 1
MULES: Solving for alpha.steam
MULES: Solving for alpha.water
MULES: Correcting alpha.steam
MULES: Correcting alpha.water
steam fraction, min, max = 0.9900832861 0.9900832861 0.9900832861
water fraction, min, max = 0.009916713878 0.009916713878 0.009916713878
Phase-sum volume fraction, min, max = 1 1 1
Constructing momentum equations
diagonal:  Solving for h.steam, Initial residual = 0, Final residual = 0, No Iterations 0
diagonal:  Solving for h.water, Initial residual = 0, Final residual = 0, No Iterations 0
steam min/max T 391.1932541 - 391.1932541
water min/max T 375.5894527 - 375.5894527
heatTransferLimitedPhaseChange: phaseChange
    min/mean/max Tsat = 372.76/372.76/372.76
    min/mean/max mDot = -1.58993944/-1.58993944/-1.58993944
diagonal:  Solving for p_rgh, Initial residual = 0, Final residual = 0, No Iterations 0
PIMPLE: Iteration 3
heatTransferLimitedPhaseChange: phaseChange
    min/mean/max Tsat = 372.76/372.76/372.76
    min/mean/max mDot = -1.589939413/-1.589939413/-1.589939413
MULES: Solving for alpha.steam
MULES: Solving for alpha.water
MULES: Correcting alpha.steam
MULES: Correcting alpha.water
steam fraction, min, max = 0.9900781226 0.9900781226 0.9900781226
water fraction, min, max = 0.009921877432 0.009921877432 0.009921877432
Phase-sum volume fraction, min, max = 1 1 1
MULES: Solving for alpha.steam
MULES: Solving for alpha.water
MULES: Correcting alpha.steam
MULES: Correcting alpha.water
steam fraction, min, max = 0.9900807035 0.9900807035 0.9900807035
water fraction, min, max = 0.009919296527 0.009919296527 0.009919296527
Phase-sum volume fraction, min, max = 1 1 1
MULES: Solving for alpha.steam
MULES: Solving for alpha.water
MULES: Correcting alpha.steam
MULES: Correcting alpha.water
steam fraction, min, max = 0.9900832837 0.9900832837 0.9900832837
water fraction, min, max = 0.009916716294 0.009916716294 0.009916716294
Phase-sum volume fraction, min, max = 1 1 1
Constructing momentum equations
diagonal:  Solving for h.steam, Initial residual = 0, Final residual = 0, No Iterations 0
diagonal:  Solving for h.water, Initial residual = 0, Final residual = 0, No Iterations 0
steam min/max T 391.1651318 - 391.1651318
water min/max T 375.589464 - 375.589464
heatTransferLimitedPhaseChange: phaseChange
    min/mean/max Tsat = 372.76/372.76/372.76
    min/mean/max mDot = -1.589879971/-1.589879971/-1.589879971
diagonal:  Solving for p_rgh, Initial residual = 0, Final residual = 0, No Iterations 0
PIMPLE: Iteration 4
heatTransferLimitedPhaseChange: phaseChange
    min/mean/max Tsat = 372.76/372.76/372.76
    min/mean/max mDot = -1.589879965/-1.589879965/-1.589879965
MULES: Solving for alpha.steam
MULES: Solving for alpha.water
MULES: Correcting alpha.steam
MULES: Correcting alpha.water
steam fraction, min, max = 0.9900781225 0.9900781225 0.9900781225
water fraction, min, max = 0.009921877529 0.009921877529 0.009921877529
Phase-sum volume fraction, min, max = 1 1 1
MULES: Solving for alpha.steam
MULES: Solving for alpha.water
MULES: Correcting alpha.steam
MULES: Correcting alpha.water
steam fraction, min, max = 0.9900807033 0.9900807033 0.9900807033
water fraction, min, max = 0.009919296722 0.009919296722 0.009919296722
Phase-sum volume fraction, min, max = 1 1 1
MULES: Solving for alpha.steam
MULES: Solving for alpha.water
MULES: Correcting alpha.steam
MULES: Correcting alpha.water
steam fraction, min, max = 0.9900832834 0.9900832834 0.9900832834
water fraction, min, max = 0.009916716585 0.009916716585 0.009916716585
Phase-sum volume fraction, min, max = 1 1 1
Constructing momentum equations
diagonal:  Solving for h.steam, Initial residual = 0, Final residual = 0, No Iterations 0
diagonal:  Solving for h.water, Initial residual = 0, Final residual = 0, No Iterations 0
steam min/max T 391.1589753 - 391.1589753
water min/max T 375.5894629 - 375.5894629
heatTransferLimitedPhaseChange: phaseChange
    min/mean/max Tsat = 372.76/372.76/372.76
    min/mean/max mDot = -1.589865008/-1.589865008/-1.589865008
diagonal:  Solving for p_rgh, Initial residual = 0, Final residual = 0, No Iterations 0
PIMPLE: Iteration 5
heatTransferLimitedPhaseChange: phaseChange
    min/mean/max Tsat = 372.76/372.76/372.76
    min/mean/max mDot = -1.589865007/-1.589865007/-1.589865007
MULES: Solving for alpha.steam
MULES: Solving for alpha.water
MULES: Correcting alpha.steam
MULES: Correcting alpha.water
steam fraction, min, max = 0.9900781224 0.9900781224 0.9900781224
water fraction, min, max = 0.009921877554 0.009921877554 0.009921877554
Phase-sum volume fraction, min, max = 1 1 1
MULES: Solving for alpha.steam
MULES: Solving for alpha.water
MULES: Correcting alpha.steam
MULES: Correcting alpha.water
steam fraction, min, max = 0.9900807032 0.9900807032 0.9900807032
water fraction, min, max = 0.00991929677 0.00991929677 0.00991929677
Phase-sum volume fraction, min, max = 1 1 1
MULES: Solving for alpha.steam
MULES: Solving for alpha.water
MULES: Correcting alpha.steam
MULES: Correcting alpha.water
steam fraction, min, max = 0.9900832833 0.9900832833 0.9900832833
water fraction, min, max = 0.009916716658 0.009916716658 0.009916716658
Phase-sum volume fraction, min, max = 1 1 1
Constructing momentum equations
diagonal:  Solving for h.steam, Initial residual = 0, Final residual = 0, No Iterations 0
diagonal:  Solving for h.water, Initial residual = 0, Final residual = 0, No Iterations 0
steam min/max T 391.1576264 - 391.1576264
water min/max T 375.5894627 - 375.5894627
heatTransferLimitedPhaseChange: phaseChange
    min/mean/max Tsat = 372.76/372.76/372.76
    min/mean/max mDot = -1.589861735/-1.589861735/-1.589861735
diagonal:  Solving for p_rgh, Initial residual = 0, Final residual = 0, No Iterations 0
ExecutionTime = 0.260584 s  ClockTime = 0 s

Courant Number mean: 0 max: 0
Time = 0.04s

PIMPLE: Iteration 1
heatTransferLimitedPhaseChange: phaseChange
    min/mean/max Tsat = 372.76/372.76/372.76
    min/mean/max mDot = -1.589861735/-1.589861735/-1.589861735
MULES: Solving for alpha.steam
MULES: Solving for alpha.water
MULES: Correcting alpha.steam
MULES: Correcting alpha.water
steam fraction, min, max = 0.9900858628 0.9900858628 0.9900858628
water fraction, min, max = 0.009914137223 0.009914137223 0.009914137223
Phase-sum volume fraction, min, max = 1 1 1
MULES: Solving for alpha.steam
MULES: Solving for alpha.water
MULES: Correcting alpha.steam
MULES: Correcting alpha.water
steam fraction, min, max = 0.9900884415 0.9900884415 0.9900884415
water fraction, min, max = 0.009911558458 0.009911558458 0.009911558458
Phase-sum volume fraction, min, max = 1 1 1
MULES: Solving for alpha.steam
MULES: Solving for alpha.water
MULES: Correcting alpha.steam
MULES: Correcting alpha.water
steam fraction, min, max = 0.9900910196 0.9900910196 0.9900910196
water fraction, min, max = 0.009908980364 0.009908980364 0.009908980364
Phase-sum volume fraction, min, max = 1 1 1
Constructing momentum equations
diagonal:  Solving for h.steam, Initial residual = 0, Final residual = 0, No Iterations 0
diagonal:  Solving for h.water, Initial residual = 0, Final residual = 0, No Iterations 0
steam min/max T 391.7941417 - 391.7941417
water min/max T 375.2336709 - 375.2336709
heatTransferLimitedPhaseChange: phaseChange
    min/mean/max Tsat = 372.76/372.76/372.76
    min/mean/max mDot = -1.395776376/-1.395776376/-1.395776376
diagonal:  Solving for p_rgh, Initial residual = 0, Final residual = 0, No Iterations 0
PIMPLE: Iteration 2
heatTransferLimitedPhaseChange: phaseChange
    min/mean/max Tsat = 372.76/372.76/372.76
    min/mean/max mDot = -1.395777259/-1.395777259/-1.395777259
MULES: Solving for alpha.steam
MULES: Solving for alpha.water
MULES: Correcting alpha.steam
MULES: Correcting alpha.water
steam fraction, min, max = 0.9900855497 0.9900855497 0.9900855497
water fraction, min, max = 0.009914450273 0.009914450273 0.009914450273
Phase-sum volume fraction, min, max = 1 1 1
MULES: Solving for alpha.steam
MULES: Solving for alpha.water
MULES: Correcting alpha.steam
MULES: Correcting alpha.water
steam fraction, min, max = 0.9900878156 0.9900878156 0.9900878156
water fraction, min, max = 0.009912184405 0.009912184405 0.009912184405
Phase-sum volume fraction, min, max = 1 1 1
MULES: Solving for alpha.steam
MULES: Solving for alpha.water
MULES: Correcting alpha.steam
MULES: Correcting alpha.water
steam fraction, min, max = 0.9900900809 0.9900900809 0.9900900809
water fraction, min, max = 0.009909919055 0.009909919055 0.009909919055
Phase-sum volume fraction, min, max = 1 1 1
Constructing momentum equations
diagonal:  Solving for h.steam, Initial residual = 0, Final residual = 0, No Iterations 0
diagonal:  Solving for h.water, Initial residual = 0, Final residual = 0, No Iterations 0
steam min/max T 391.6851891 - 391.6851891
water min/max T 375.2333542 - 375.2333542
heatTransferLimitedPhaseChange: phaseChange
    min/mean/max Tsat = 372.76/372.76/372.76
    min/mean/max mDot = -1.395480987/-1.395480987/-1.395480987
diagonal:  Solving for p_rgh, Initial residual = 0, Final residual = 0, No Iterations 0
PIMPLE: Iteration 3
heatTransferLimitedPhaseChange: phaseChange
    min/mean/max Tsat = 372.76/372.76/372.76
    min/mean/max mDot = -1.395480967/-1.395480967/-1.395480967
MULES: Solving for alpha.steam
MULES: Solving for alpha.water
MULES: Correcting alpha.steam
MULES: Correcting alpha.water
steam fraction, min, max = 0.990085549 0.990085549 0.990085549
water fraction, min, max = 0.009914450967 0.009914450967 0.009914450967
Phase-sum volume fraction, min, max = 1 1 1
MULES: Solving for alpha.steam
MULES: Solving for alpha.water
MULES: Correcting alpha.steam
MULES: Correcting alpha.water
steam fraction, min, max = 0.9900878142 0.9900878142 0.9900878142
water fraction, min, max = 0.009912185793 0.009912185793 0.009912185793
Phase-sum volume fraction, min, max = 1 1 1
MULES: Solving for alpha.steam
MULES: Solving for alpha.water
MULES: Correcting alpha.steam
MULES: Correcting alpha.water
steam fraction, min, max = 0.9900900789 0.9900900789 0.9900900789
water fraction, min, max = 0.009909921137 0.009909921137 0.009909921137
Phase-sum volume fraction, min, max = 1 1 1
Constructing momentum equations
diagonal:  Solving for h.steam, Initial residual = 0, Final residual = 0, No Iterations 0
diagonal:  Solving for h.water, Initial residual = 0, Final residual = 0, No Iterations 0
steam min/max T 391.6612931 - 391.6612931
water min/max T 375.2333677 - 375.2333677
heatTransferLimitedPhaseChange: phaseChange
    min/mean/max Tsat = 372.76/372.76/372.76
    min/mean/max mDot = -1.395432591/-1.395432591/-1.395432591
diagonal:  Solving for p_rgh, Initial residual = 0, Final residual = 0, No Iterations 0
PIMPLE: Iteration 4
heatTransferLimitedPhaseChange: phaseChange
    min/mean/max Tsat = 372.76/372.76/372.76
    min/mean/max mDot = -1.395432586/-1.395432586/-1.395432586
MULES: Solving for alpha.steam
MULES: Solving for alpha.water
MULES: Correcting alpha.steam
MULES: Correcting alpha.water
steam fraction, min, max = 0.990085549 0.990085549 0.990085549
water fraction, min, max = 0.009914451046 0.009914451046 0.009914451046
Phase-sum volume fraction, min, max = 1 1 1
MULES: Solving for alpha.steam
MULES: Solving for alpha.water
MULES: Correcting alpha.steam
MULES: Correcting alpha.water
steam fraction, min, max = 0.990087814 0.990087814 0.990087814
water fraction, min, max = 0.009912185951 0.009912185951 0.009912185951
Phase-sum volume fraction, min, max = 1 1 1
MULES: Solving for alpha.steam
MULES: Solving for alpha.water
MULES: Correcting alpha.steam
MULES: Correcting alpha.water
steam fraction, min, max = 0.9900900786 0.9900900786 0.9900900786
water fraction, min, max = 0.009909921373 0.009909921373 0.009909921373
Phase-sum volume fraction, min, max = 1 1 1
Constructing momentum equations
diagonal:  Solving for h.steam, Initial residual = 0, Final residual = 0, No Iterations 0
diagonal:  Solving for h.water, Initial residual = 0, Final residual = 0, No Iterations 0
steam min/max T 391.6560624 - 391.6560624
water min/max T 375.2333668 - 375.2333668
heatTransferLimitedPhaseChange: phaseChange
    min/mean/max Tsat = 372.76/372.76/372.76
    min/mean/max mDot = -1.395419884/-1.395419884/-1.395419884
diagonal:  Solving for p_rgh, Initial residual = 0, Final residual = 0, No Iterations 0
PIMPLE: Iteration 5
heatTransferLimitedPhaseChange: phaseChange
    min/mean/max Tsat = 372.76/372.76/372.76
    min/mean/max mDot = -1.395419883/-1.395419883/-1.395419883
MULES: Solving for alpha.steam
MULES: Solving for alpha.water
MULES: Correcting alpha.steam
MULES: Correcting alpha.water
steam fraction, min, max = 0.9900855489 0.9900855489 0.9900855489
water fraction, min, max = 0.009914451067 0.009914451067 0.009914451067
Phase-sum volume fraction, min, max = 1 1 1
MULES: Solving for alpha.steam
MULES: Solving for alpha.water
MULES: Correcting alpha.steam
MULES: Correcting alpha.water
steam fraction, min, max = 0.990087814 0.990087814 0.990087814
water fraction, min, max = 0.009912185992 0.009912185992 0.009912185992
Phase-sum volume fraction, min, max = 1 1 1
MULES: Solving for alpha.steam
MULES: Solving for alpha.water
MULES: Correcting alpha.steam
MULES: Correcting alpha.water
steam fraction, min, max = 0.9900900786 0.9900900786 0.9900900786
water fraction, min, max = 0.009909921436 0.009909921436 0.009909921436
Phase-sum volume fraction, min, max = 1 1 1
Constructing momentum equations
diagonal:  Solving for h.steam, Initial residual = 0, Final residual = 0, No Iterations 0
diagonal:  Solving for h.water, Initial residual = 0, Final residual = 0, No Iterations 0
steam min/max T 391.6549163 - 391.6549163
water min/max T 375.2333666 - 375.2333666
heatTransferLimitedPhaseChange: phaseChange
    min/mean/max Tsat = 372.76/372.76/372.76
    min/mean/max mDot = -1.395417104/-1.395417104/-1.395417104
diagonal:  Solving for p_rgh, Initial residual = 0, Final residual = 0, No Iterations 0
ExecutionTime = 0.275778 s  ClockTime = 0 s

Courant Number mean: 0 max: 0
Time = 0.045s

PIMPLE: Iteration 1
heatTransferLimitedPhaseChange: phaseChange
    min/mean/max Tsat = 372.76/372.76/372.76
    min/mean/max mDot = -1.395417103/-1.395417103/-1.395417103
MULES: Solving for alpha.steam
MULES: Solving for alpha.water
MULES: Correcting alpha.steam
MULES: Correcting alpha.water
steam fraction, min, max = 0.9900923426 0.9900923426 0.9900923426
water fraction, min, max = 0.009907657401 0.009907657401 0.009907657401
Phase-sum volume fraction, min, max = 1 1 1
MULES: Solving for alpha.steam
MULES: Solving for alpha.water
MULES: Correcting alpha.steam
MULES: Correcting alpha.water
steam fraction, min, max = 0.9900946061 0.9900946061 0.9900946061
water fraction, min, max = 0.009905393883 0.009905393883 0.009905393883
Phase-sum volume fraction, min, max = 1 1 1
MULES: Solving for alpha.steam
MULES: Solving for alpha.water
MULES: Correcting alpha.steam
MULES: Correcting alpha.water
steam fraction, min, max = 0.9900968691 0.9900968691 0.9900968691
water fraction, min, max = 0.009903130882 0.009903130882 0.009903130882
Phase-sum volume fraction, min, max = 1 1 1
Constructing momentum equations
diagonal:  Solving for h.steam, Initial residual = 0, Final residual = 0, No Iterations 0
diagonal:  Solving for h.water, Initial residual = 0, Final residual = 0, No Iterations 0
steam min/max T 392.1325679 - 392.1325679
water min/max T 374.9222491 - 374.9222491
heatTransferLimitedPhaseChange: phaseChange
    min/mean/max Tsat = 372.76/372.76/372.76
    min/mean/max mDot = -1.22574455/-1.22574455/-1.22574455
diagonal:  Solving for p_rgh, Initial residual = 0, Final residual = 0, No Iterations 0
PIMPLE: Iteration 2
heatTransferLimitedPhaseChange: phaseChange
    min/mean/max Tsat = 372.76/372.76/372.76
    min/mean/max mDot = -1.225745219/-1.225745219/-1.225745219
MULES: Solving for alpha.steam
MULES: Solving for alpha.water
MULES: Correcting alpha.steam
MULES: Correcting alpha.water
steam fraction, min, max = 0.9900920687 0.9900920687 0.9900920687
water fraction, min, max = 0.009907931272 0.009907931272 0.009907931272
Phase-sum volume fraction, min, max = 1 1 1
MULES: Solving for alpha.steam
MULES: Solving for alpha.water
MULES: Correcting alpha.steam
MULES: Correcting alpha.water
steam fraction, min, max = 0.9900940585 0.9900940585 0.9900940585
water fraction, min, max = 0.009905941508 0.009905941508 0.009905941508
Phase-sum volume fraction, min, max = 1 1 1
MULES: Solving for alpha.steam
MULES: Solving for alpha.water
MULES: Correcting alpha.steam
MULES: Correcting alpha.water
steam fraction, min, max = 0.9900960479 0.9900960479 0.9900960479
water fraction, min, max = 0.009903952144 0.009903952144 0.009903952144
Phase-sum volume fraction, min, max = 1 1 1
Constructing momentum equations
diagonal:  Solving for h.steam, Initial residual = 0, Final residual = 0, No Iterations 0
diagonal:  Solving for h.water, Initial residual = 0, Final residual = 0, No Iterations 0
steam min/max T 392.0396858 - 392.0396858
water min/max T 374.9219711 - 374.9219711
heatTransferLimitedPhaseChange: phaseChange
    min/mean/max Tsat = 372.76/372.76/372.76
    min/mean/max mDot = -1.225477436/-1.225477436/-1.225477436
diagonal:  Solving for p_rgh, Initial residual = 0, Final residual = 0, No Iterations 0
PIMPLE: Iteration 3
heatTransferLimitedPhaseChange: phaseChange
    min/mean/max Tsat = 372.76/372.76/372.76
    min/mean/max mDot = -1.22547742/-1.22547742/-1.22547742
MULES: Solving for alpha.steam
MULES: Solving for alpha.water
MULES: Correcting alpha.steam
MULES: Correcting alpha.water
steam fraction, min, max = 0.9900920681 0.9900920681 0.9900920681
water fraction, min, max = 0.009907931871 0.009907931871 0.009907931871
Phase-sum volume fraction, min, max = 1 1 1
MULES: Solving for alpha.steam
MULES: Solving for alpha.water
MULES: Correcting alpha.steam
MULES: Correcting alpha.water
steam fraction, min, max = 0.9900940573 0.9900940573 0.9900940573
water fraction, min, max = 0.009905942705 0.009905942705 0.009905942705
Phase-sum volume fraction, min, max = 1 1 1
MULES: Solving for alpha.steam
MULES: Solving for alpha.water
MULES: Correcting alpha.steam
MULES: Correcting alpha.water
steam fraction, min, max = 0.9900960461 0.9900960461 0.9900960461
water fraction, min, max = 0.009903953939 0.009903953939 0.009903953939
Phase-sum volume fraction, min, max = 1 1 1
Constructing momentum equations
diagonal:  Solving for h.steam, Initial residual = 0, Final residual = 0, No Iterations 0
diagonal:  Solving for h.water, Initial residual = 0, Final residual = 0, No Iterations 0
steam min/max T 392.0193057 - 392.0193057
water min/max T 374.9219856 - 374.9219856
heatTransferLimitedPhaseChange: phaseChange
    min/mean/max Tsat = 372.76/372.76/372.76
    min/mean/max mDot = -1.22543779/-1.22543779/-1.22543779
diagonal:  Solving for p_rgh, Initial residual = 0, Final residual = 0, No Iterations 0
PIMPLE: Iteration 4
heatTransferLimitedPhaseChange: phaseChange
    min/mean/max Tsat = 372.76/372.76/372.76
    min/mean/max mDot = -1.225437786/-1.225437786/-1.225437786
MULES: Solving for alpha.steam
MULES: Solving for alpha.water
MULES: Correcting alpha.steam
MULES: Correcting alpha.water
steam fraction, min, max = 0.9900920681 0.9900920681 0.9900920681
water fraction, min, max = 0.009907931935 0.009907931935 0.009907931935
Phase-sum volume fraction, min, max = 1 1 1
MULES: Solving for alpha.steam
MULES: Solving for alpha.water
MULES: Correcting alpha.steam
MULES: Correcting alpha.water
steam fraction, min, max = 0.9900940572 0.9900940572 0.9900940572
water fraction, min, max = 0.009905942835 0.009905942835 0.009905942835
Phase-sum volume fraction, min, max = 1 1 1
MULES: Solving for alpha.steam
MULES: Solving for alpha.water
MULES: Correcting alpha.steam
MULES: Correcting alpha.water
steam fraction, min, max = 0.9900960459 0.9900960459 0.9900960459
water fraction, min, max = 0.009903954133 0.009903954133 0.009903954133
Phase-sum volume fraction, min, max = 1 1 1
Constructing momentum equations
diagonal:  Solving for h.steam, Initial residual = 0, Final residual = 0, No Iterations 0
diagonal:  Solving for h.water, Initial residual = 0, Final residual = 0, No Iterations 0
steam min/max T 392.014845 - 392.014845
water min/max T 374.9219849 - 374.9219849
heatTransferLimitedPhaseChange: phaseChange
    min/mean/max Tsat = 372.76/372.76/372.76
    min/mean/max mDot = -1.225426958/-1.225426958/-1.225426958
diagonal:  Solving for p_rgh, Initial residual = 0, Final residual = 0, No Iterations 0
PIMPLE: Iteration 5
heatTransferLimitedPhaseChange: phaseChange
    min/mean/max Tsat = 372.76/372.76/372.76
    min/mean/max mDot = -1.225426957/-1.225426957/-1.225426957
MULES: Solving for alpha.steam
MULES: Solving for alpha.water
MULES: Correcting alpha.steam
MULES: Correcting alpha.water
steam fraction, min, max = 0.990092068 0.990092068 0.990092068
water fraction, min, max = 0.009907931953 0.009907931953 0.009907931953
Phase-sum volume fraction, min, max = 1 1 1
MULES: Solving for alpha.steam
MULES: Solving for alpha.water
MULES: Correcting alpha.steam
MULES: Correcting alpha.water
steam fraction, min, max = 0.9900940571 0.9900940571 0.9900940571
water fraction, min, max = 0.00990594287 0.00990594287 0.00990594287
Phase-sum volume fraction, min, max = 1 1 1
MULES: Solving for alpha.steam
MULES: Solving for alpha.water
MULES: Correcting alpha.steam
MULES: Correcting alpha.water
steam fraction, min, max = 0.9900960458 0.9900960458 0.9900960458
water fraction, min, max = 0.009903954186 0.009903954186 0.009903954186
Phase-sum volume fraction, min, max = 1 1 1
Constructing momentum equations
diagonal:  Solving for h.steam, Initial residual = 0, Final residual = 0, No Iterations 0
diagonal:  Solving for h.water, Initial residual = 0, Final residual = 0, No Iterations 0
steam min/max T 392.0138675 - 392.0138675
water min/max T 374.9219847 - 374.9219847
heatTransferLimitedPhaseChange: phaseChange
    min/mean/max Tsat = 372.76/372.76/372.76
    min/mean/max mDot = -1.225424588/-1.225424588/-1.225424588
diagonal:  Solving for p_rgh, Initial residual = 0, Final residual = 0, No Iterations 0
ExecutionTime = 0.291453 s  ClockTime = 0 s

Courant Number mean: 0 max: 0
Time = 0.05s

PIMPLE: Iteration 1
heatTransferLimitedPhaseChange: phaseChange
    min/mean/max Tsat = 372.76/372.76/372.76
    min/mean/max mDot = -1.225424588/-1.225424588/-1.225424588
MULES: Solving for alpha.steam
MULES: Solving for alpha.water
MULES: Correcting alpha.steam
MULES: Correcting alpha.water
steam fraction, min, max = 0.9900980341 0.9900980341 0.9900980341
water fraction, min, max = 0.009901965905 0.009901965905 0.009901965905
Phase-sum volume fraction, min, max = 1 1 1
MULES: Solving for alpha.steam
MULES: Solving for alpha.water
MULES: Correcting alpha.steam
MULES: Correcting alpha.water
steam fraction, min, max = 0.990100022 0.990100022 0.990100022
water fraction, min, max = 0.009899978024 0.009899978024 0.009899978024
Phase-sum volume fraction, min, max = 1 1 1
MULES: Solving for alpha.steam
MULES: Solving for alpha.water
MULES: Correcting alpha.steam
MULES: Correcting alpha.water
steam fraction, min, max = 0.9901020095 0.9901020095 0.9901020095
water fraction, min, max = 0.009897990541 0.009897990541 0.009897990541
Phase-sum volume fraction, min, max = 1 1 1
Constructing momentum equations
diagonal:  Solving for h.steam, Initial residual = 0, Final residual = 0, No Iterations 0
diagonal:  Solving for h.water, Initial residual = 0, Final residual = 0, No Iterations 0
steam min/max T 392.3596576 - 392.3596576
water min/max T 374.6499556 - 374.6499556
heatTransferLimitedPhaseChange: phaseChange
    min/mean/max Tsat = 372.76/372.76/372.76
    min/mean/max mDot = -1.077075818/-1.077075818/-1.077075818
diagonal:  Solving for p_rgh, Initial residual = 0, Final residual = 0, No Iterations 0
PIMPLE: Iteration 2
heatTransferLimitedPhaseChange: phaseChange
    min/mean/max Tsat = 372.76/372.76/372.76
    min/mean/max mDot = -1.077076325/-1.077076325/-1.077076325
MULES: Solving for alpha.steam
MULES: Solving for alpha.water
MULES: Correcting alpha.steam
MULES: Correcting alpha.water
steam fraction, min, max = 0.9900977945 0.9900977945 0.9900977945
water fraction, min, max = 0.009902205509 0.009902205509 0.009902205509
Phase-sum volume fraction, min, max = 1 1 1
MULES: Solving for alpha.steam
MULES: Solving for alpha.water
MULES: Correcting alpha.steam
MULES: Correcting alpha.water
steam fraction, min, max = 0.9900995429 0.9900995429 0.9900995429
water fraction, min, max = 0.009900457142 0.009900457142 0.009900457142
Phase-sum volume fraction, min, max = 1 1 1
MULES: Solving for alpha.steam
MULES: Solving for alpha.water
MULES: Correcting alpha.steam
MULES: Correcting alpha.water
steam fraction, min, max = 0.9901012909 0.9901012909 0.9901012909
water fraction, min, max = 0.009898709083 0.009898709083 0.009898709083
Phase-sum volume fraction, min, max = 1 1 1
Constructing momentum equations
diagonal:  Solving for h.steam, Initial residual = 0, Final residual = 0, No Iterations 0
diagonal:  Solving for h.water, Initial residual = 0, Final residual = 0, No Iterations 0
steam min/max T 392.2802199 - 392.2802199
water min/max T 374.6497124 - 374.6497124
heatTransferLimitedPhaseChange: phaseChange
    min/mean/max Tsat = 372.76/372.76/372.76
    min/mean/max mDot = -1.076835746/-1.076835746/-1.076835746
diagonal:  Solving for p_rgh, Initial residual = 0, Final residual = 0, No Iterations 0
PIMPLE: Iteration 3
[...]
    min/mean/max Tsat = 372.76/372.76/372.76
    min/mean/max mDot = -0.001124185458/-0.001124185458/-0.001124185458
diagonal:  Solving for p_rgh, Initial residual = 0, Final residual = 0, No Iterations 0
PIMPLE: Iteration 4
heatTransferLimitedPhaseChange: phaseChange
    min/mean/max Tsat = 372.76/372.76/372.76
    min/mean/max mDot = -0.001124185458/-0.001124185458/-0.001124185458
MULES: Solving for alpha.steam
MULES: Solving for alpha.water
MULES: Correcting alpha.steam
MULES: Correcting alpha.water
steam fraction, min, max = 0.990148495 0.990148495 0.990148495
water fraction, min, max = 0.009851505026 0.009851505026 0.009851505026
Phase-sum volume fraction, min, max = 1 1 1
MULES: Solving for alpha.steam
MULES: Solving for alpha.water
MULES: Correcting alpha.steam
MULES: Correcting alpha.water
steam fraction, min, max = 0.9901484968 0.9901484968 0.9901484968
water fraction, min, max = 0.009851503202 0.009851503202 0.009851503202
Phase-sum volume fraction, min, max = 1 1 1
MULES: Solving for alpha.steam
MULES: Solving for alpha.water
MULES: Correcting alpha.steam
MULES: Correcting alpha.water
steam fraction, min, max = 0.9901484986 0.9901484986 0.9901484986
water fraction, min, max = 0.009851501377 0.009851501377 0.009851501377
Phase-sum volume fraction, min, max = 1 1 1
Constructing momentum equations
diagonal:  Solving for h.steam, Initial residual = 0, Final residual = 0, No Iterations 0
diagonal:  Solving for h.water, Initial residual = 0, Final residual = 0, No Iterations 0
steam min/max T 373.2422545 - 373.2422545
water min/max T 372.76 - 372.76
heatTransferLimitedPhaseChange: phaseChange
    min/mean/max Tsat = 372.76/372.76/372.76
    min/mean/max mDot = -0.001124188485/-0.001124188485/-0.001124188485
diagonal:  Solving for p_rgh, Initial residual = 0, Final residual = 0, No Iterations 0
PIMPLE: Iteration 5
heatTransferLimitedPhaseChange: phaseChange
    min/mean/max Tsat = 372.76/372.76/372.76
    min/mean/max mDot = -0.001124188485/-0.001124188485/-0.001124188485
MULES: Solving for alpha.steam
MULES: Solving for alpha.water
MULES: Correcting alpha.steam
MULES: Correcting alpha.water
steam fraction, min, max = 0.990148495 0.990148495 0.990148495
water fraction, min, max = 0.009851505026 0.009851505026 0.009851505026
Phase-sum volume fraction, min, max = 1 1 1
MULES: Solving for alpha.steam
MULES: Solving for alpha.water
MULES: Correcting alpha.steam
MULES: Correcting alpha.water
steam fraction, min, max = 0.9901484968 0.9901484968 0.9901484968
water fraction, min, max = 0.009851503202 0.009851503202 0.009851503202
Phase-sum volume fraction, min, max = 1 1 1
MULES: Solving for alpha.steam
MULES: Solving for alpha.water
MULES: Correcting alpha.steam
MULES: Correcting alpha.water
steam fraction, min, max = 0.9901484986 0.9901484986 0.9901484986
water fraction, min, max = 0.009851501377 0.009851501377 0.009851501377
Phase-sum volume fraction, min, max = 1 1 1
Constructing momentum equations
diagonal:  Solving for h.steam, Initial residual = 0, Final residual = 0, No Iterations 0
diagonal:  Solving for h.water, Initial residual = 0, Final residual = 0, No Iterations 0
steam min/max T 373.2422548 - 373.2422548
water min/max T 372.76 - 372.76
heatTransferLimitedPhaseChange: phaseChange
    min/mean/max Tsat = 372.76/372.76/372.76
    min/mean/max mDot = -0.001124189149/-0.001124189149/-0.001124189149
diagonal:  Solving for p_rgh, Initial residual = 0, Final residual = 0, No Iterations 0
ExecutionTime = 3.222885 s  ClockTime = 3 s

Courant Number mean: 0 max: 0
Time = 0.995s

PIMPLE: Iteration 1
heatTransferLimitedPhaseChange: phaseChange
    min/mean/max Tsat = 372.76/372.76/372.76
    min/mean/max mDot = -0.001124189149/-0.001124189149/-0.001124189149
MULES: Solving for alpha.steam
MULES: Solving for alpha.water
MULES: Correcting alpha.steam
MULES: Correcting alpha.water
steam fraction, min, max = 0.9901485004 0.9901485004 0.9901485004
water fraction, min, max = 0.009851499553 0.009851499553 0.009851499553
Phase-sum volume fraction, min, max = 1 1 1
MULES: Solving for alpha.steam
MULES: Solving for alpha.water
MULES: Correcting alpha.steam
MULES: Correcting alpha.water
steam fraction, min, max = 0.9901485023 0.9901485023 0.9901485023
water fraction, min, max = 0.009851497728 0.009851497728 0.009851497728
Phase-sum volume fraction, min, max = 1 1 1
MULES: Solving for alpha.steam
MULES: Solving for alpha.water
MULES: Correcting alpha.steam
MULES: Correcting alpha.water
steam fraction, min, max = 0.9901485041 0.9901485041 0.9901485041
water fraction, min, max = 0.009851495904 0.009851495904 0.009851495904
Phase-sum volume fraction, min, max = 1 1 1
Constructing momentum equations
diagonal:  Solving for h.steam, Initial residual = 0, Final residual = 0, No Iterations 0
diagonal:  Solving for h.water, Initial residual = 0, Final residual = 0, No Iterations 0
steam min/max T 373.2323143 - 373.2323143
water min/max T 372.7599995 - 372.7599995
heatTransferLimitedPhaseChange: phaseChange
    min/mean/max Tsat = 372.76/372.76/372.76
    min/mean/max mDot = -0.00110075133/-0.00110075133/-0.00110075133
diagonal:  Solving for p_rgh, Initial residual = 0, Final residual = 0, No Iterations 0
PIMPLE: Iteration 2
heatTransferLimitedPhaseChange: phaseChange
    min/mean/max Tsat = 372.76/372.76/372.76
    min/mean/max mDot = -0.001100751328/-0.001100751328/-0.001100751328
MULES: Solving for alpha.steam
MULES: Solving for alpha.water
MULES: Correcting alpha.steam
MULES: Correcting alpha.water
steam fraction, min, max = 0.9901485004 0.9901485004 0.9901485004
water fraction, min, max = 0.009851499591 0.009851499591 0.009851499591
Phase-sum volume fraction, min, max = 1 1 1
MULES: Solving for alpha.steam
MULES: Solving for alpha.water
MULES: Correcting alpha.steam
MULES: Correcting alpha.water
steam fraction, min, max = 0.9901485022 0.9901485022 0.9901485022
water fraction, min, max = 0.009851497804 0.009851497804 0.009851497804
Phase-sum volume fraction, min, max = 1 1 1
MULES: Solving for alpha.steam
MULES: Solving for alpha.water
MULES: Correcting alpha.steam
MULES: Correcting alpha.water
steam fraction, min, max = 0.990148504 0.990148504 0.990148504
water fraction, min, max = 0.009851496018 0.009851496018 0.009851496018
Phase-sum volume fraction, min, max = 1 1 1
Constructing momentum equations
diagonal:  Solving for h.steam, Initial residual = 0, Final residual = 0, No Iterations 0
diagonal:  Solving for h.water, Initial residual = 0, Final residual = 0, No Iterations 0
steam min/max T 373.2323394 - 373.2323394
water min/max T 372.7600001 - 372.7600001
heatTransferLimitedPhaseChange: phaseChange
    min/mean/max Tsat = 372.76/372.76/372.76
    min/mean/max mDot = -0.001101112244/-0.001101112244/-0.001101112244
diagonal:  Solving for p_rgh, Initial residual = 0, Final residual = 0, No Iterations 0
PIMPLE: Iteration 3
heatTransferLimitedPhaseChange: phaseChange
    min/mean/max Tsat = 372.76/372.76/372.76
    min/mean/max mDot = -0.001101112244/-0.001101112244/-0.001101112244
MULES: Solving for alpha.steam
MULES: Solving for alpha.water
MULES: Correcting alpha.steam
MULES: Correcting alpha.water
steam fraction, min, max = 0.9901485004 0.9901485004 0.9901485004
water fraction, min, max = 0.00985149959 0.00985149959 0.00985149959
Phase-sum volume fraction, min, max = 1 1 1
MULES: Solving for alpha.steam
MULES: Solving for alpha.water
MULES: Correcting alpha.steam
MULES: Correcting alpha.water
steam fraction, min, max = 0.9901485022 0.9901485022 0.9901485022
water fraction, min, max = 0.009851497803 0.009851497803 0.009851497803
Phase-sum volume fraction, min, max = 1 1 1
MULES: Solving for alpha.steam
MULES: Solving for alpha.water
MULES: Correcting alpha.steam
MULES: Correcting alpha.water
steam fraction, min, max = 0.990148504 0.990148504 0.990148504
water fraction, min, max = 0.009851496016 0.009851496016 0.009851496016
Phase-sum volume fraction, min, max = 1 1 1
Constructing momentum equations
diagonal:  Solving for h.steam, Initial residual = 0, Final residual = 0, No Iterations 0
diagonal:  Solving for h.water, Initial residual = 0, Final residual = 0, No Iterations 0
steam min/max T 373.2323451 - 373.2323451
water min/max T 372.76 - 372.76
heatTransferLimitedPhaseChange: phaseChange
    min/mean/max Tsat = 372.76/372.76/372.76
    min/mean/max mDot = -0.001101087719/-0.001101087719/-0.001101087719
diagonal:  Solving for p_rgh, Initial residual = 0, Final residual = 0, No Iterations 0
PIMPLE: Iteration 4
heatTransferLimitedPhaseChange: phaseChange
    min/mean/max Tsat = 372.76/372.76/372.76
    min/mean/max mDot = -0.001101087719/-0.001101087719/-0.001101087719
MULES: Solving for alpha.steam
MULES: Solving for alpha.water
MULES: Correcting alpha.steam
MULES: Correcting alpha.water
steam fraction, min, max = 0.9901485004 0.9901485004 0.9901485004
water fraction, min, max = 0.00985149959 0.00985149959 0.00985149959
Phase-sum volume fraction, min, max = 1 1 1
MULES: Solving for alpha.steam
MULES: Solving for alpha.water
MULES: Correcting alpha.steam
MULES: Correcting alpha.water
steam fraction, min, max = 0.9901485022 0.9901485022 0.9901485022
water fraction, min, max = 0.009851497803 0.009851497803 0.009851497803
Phase-sum volume fraction, min, max = 1 1 1
MULES: Solving for alpha.steam
MULES: Solving for alpha.water
MULES: Correcting alpha.steam
MULES: Correcting alpha.water
steam fraction, min, max = 0.990148504 0.990148504 0.990148504
water fraction, min, max = 0.009851496016 0.009851496016 0.009851496016
Phase-sum volume fraction, min, max = 1 1 1
Constructing momentum equations
diagonal:  Solving for h.steam, Initial residual = 0, Final residual = 0, No Iterations 0
diagonal:  Solving for h.water, Initial residual = 0, Final residual = 0, No Iterations 0
steam min/max T 373.2323463 - 373.2323463
water min/max T 372.76 - 372.76
heatTransferLimitedPhaseChange: phaseChange
    min/mean/max Tsat = 372.76/372.76/372.76
    min/mean/max mDot = -0.001101090683/-0.001101090683/-0.001101090683
diagonal:  Solving for p_rgh, Initial residual = 0, Final residual = 0, No Iterations 0
PIMPLE: Iteration 5
heatTransferLimitedPhaseChange: phaseChange
    min/mean/max Tsat = 372.76/372.76/372.76
    min/mean/max mDot = -0.001101090683/-0.001101090683/-0.001101090683
MULES: Solving for alpha.steam
MULES: Solving for alpha.water
MULES: Correcting alpha.steam
MULES: Correcting alpha.water
steam fraction, min, max = 0.9901485004 0.9901485004 0.9901485004
water fraction, min, max = 0.00985149959 0.00985149959 0.00985149959
Phase-sum volume fraction, min, max = 1 1 1
MULES: Solving for alpha.steam
MULES: Solving for alpha.water
MULES: Correcting alpha.steam
MULES: Correcting alpha.water
steam fraction, min, max = 0.9901485022 0.9901485022 0.9901485022
water fraction, min, max = 0.009851497803 0.009851497803 0.009851497803
Phase-sum volume fraction, min, max = 1 1 1
MULES: Solving for alpha.steam
MULES: Solving for alpha.water
MULES: Correcting alpha.steam
MULES: Correcting alpha.water
steam fraction, min, max = 0.990148504 0.990148504 0.990148504
water fraction, min, max = 0.009851496016 0.009851496016 0.009851496016
Phase-sum volume fraction, min, max = 1 1 1
Constructing momentum equations
diagonal:  Solving for h.steam, Initial residual = 0, Final residual = 0, No Iterations 0
diagonal:  Solving for h.water, Initial residual = 0, Final residual = 0, No Iterations 0
steam min/max T 373.2323465 - 373.2323465
water min/max T 372.76 - 372.76
heatTransferLimitedPhaseChange: phaseChange
    min/mean/max Tsat = 372.76/372.76/372.76
    min/mean/max mDot = -0.001101091333/-0.001101091333/-0.001101091333
diagonal:  Solving for p_rgh, Initial residual = 0, Final residual = 0, No Iterations 0
ExecutionTime = 3.238264 s  ClockTime = 3 s

Courant Number mean: 0 max: 0
Time = 1s

PIMPLE: Iteration 1
heatTransferLimitedPhaseChange: phaseChange
    min/mean/max Tsat = 372.76/372.76/372.76
    min/mean/max mDot = -0.001101091333/-0.001101091333/-0.001101091333
MULES: Solving for alpha.steam
MULES: Solving for alpha.water
MULES: Correcting alpha.steam
MULES: Correcting alpha.water
steam fraction, min, max = 0.9901485058 0.9901485058 0.9901485058
water fraction, min, max = 0.00985149423 0.00985149423 0.00985149423
Phase-sum volume fraction, min, max = 1 1 1
MULES: Solving for alpha.steam
MULES: Solving for alpha.water
MULES: Correcting alpha.steam
MULES: Correcting alpha.water
steam fraction, min, max = 0.9901485076 0.9901485076 0.9901485076
water fraction, min, max = 0.009851492443 0.009851492443 0.009851492443
Phase-sum volume fraction, min, max = 1 1 1
MULES: Solving for alpha.steam
MULES: Solving for alpha.water
MULES: Correcting alpha.steam
MULES: Correcting alpha.water
steam fraction, min, max = 0.9901485093 0.9901485093 0.9901485093
water fraction, min, max = 0.009851490656 0.009851490656 0.009851490656
Phase-sum volume fraction, min, max = 1 1 1
Constructing momentum equations
diagonal:  Solving for h.steam, Initial residual = 0, Final residual = 0, No Iterations 0
diagonal:  Solving for h.water, Initial residual = 0, Final residual = 0, No Iterations 0
steam min/max T 373.2226104 - 373.2226104
water min/max T 372.7599995 - 372.7599995
heatTransferLimitedPhaseChange: phaseChange
    min/mean/max Tsat = 372.76/372.76/372.76
    min/mean/max mDot = -0.00107813544/-0.00107813544/-0.00107813544
diagonal:  Solving for p_rgh, Initial residual = 0, Final residual = 0, No Iterations 0
PIMPLE: Iteration 2
heatTransferLimitedPhaseChange: phaseChange
    min/mean/max Tsat = 372.76/372.76/372.76
    min/mean/max mDot = -0.001078135439/-0.001078135439/-0.001078135439
MULES: Solving for alpha.steam
MULES: Solving for alpha.water
MULES: Correcting alpha.steam
MULES: Correcting alpha.water
steam fraction, min, max = 0.9901485057 0.9901485057 0.9901485057
water fraction, min, max = 0.009851494267 0.009851494267 0.009851494267
Phase-sum volume fraction, min, max = 1 1 1
MULES: Solving for alpha.steam
MULES: Solving for alpha.water
MULES: Correcting alpha.steam
MULES: Correcting alpha.water
steam fraction, min, max = 0.9901485075 0.9901485075 0.9901485075
water fraction, min, max = 0.009851492517 0.009851492517 0.009851492517
Phase-sum volume fraction, min, max = 1 1 1
MULES: Solving for alpha.steam
MULES: Solving for alpha.water
MULES: Correcting alpha.steam
MULES: Correcting alpha.water
steam fraction, min, max = 0.9901485092 0.9901485092 0.9901485092
water fraction, min, max = 0.009851490767 0.009851490767 0.009851490767
Phase-sum volume fraction, min, max = 1 1 1
Constructing momentum equations
diagonal:  Solving for h.steam, Initial residual = 0, Final residual = 0, No Iterations 0
diagonal:  Solving for h.water, Initial residual = 0, Final residual = 0, No Iterations 0
steam min/max T 373.222635 - 373.222635
water min/max T 372.7600001 - 372.7600001
heatTransferLimitedPhaseChange: phaseChange
    min/mean/max Tsat = 372.76/372.76/372.76
    min/mean/max mDot = -0.001078488932/-0.001078488932/-0.001078488932
diagonal:  Solving for p_rgh, Initial residual = 0, Final residual = 0, No Iterations 0
PIMPLE: Iteration 3
heatTransferLimitedPhaseChange: phaseChange
    min/mean/max Tsat = 372.76/372.76/372.76
    min/mean/max mDot = -0.001078488932/-0.001078488932/-0.001078488932
MULES: Solving for alpha.steam
MULES: Solving for alpha.water
MULES: Correcting alpha.steam
MULES: Correcting alpha.water
steam fraction, min, max = 0.9901485057 0.9901485057 0.9901485057
water fraction, min, max = 0.009851494266 0.009851494266 0.009851494266
Phase-sum volume fraction, min, max = 1 1 1
MULES: Solving for alpha.steam
MULES: Solving for alpha.water
MULES: Correcting alpha.steam
MULES: Correcting alpha.water
steam fraction, min, max = 0.9901485075 0.9901485075 0.9901485075
water fraction, min, max = 0.009851492516 0.009851492516 0.009851492516
Phase-sum volume fraction, min, max = 1 1 1
MULES: Solving for alpha.steam
MULES: Solving for alpha.water
MULES: Correcting alpha.steam
MULES: Correcting alpha.water
steam fraction, min, max = 0.9901485092 0.9901485092 0.9901485092
water fraction, min, max = 0.009851490766 0.009851490766 0.009851490766
Phase-sum volume fraction, min, max = 1 1 1
Constructing momentum equations
diagonal:  Solving for h.steam, Initial residual = 0, Final residual = 0, No Iterations 0
diagonal:  Solving for h.water, Initial residual = 0, Final residual = 0, No Iterations 0
steam min/max T 373.2226406 - 373.2226406
water min/max T 372.76 - 372.76
heatTransferLimitedPhaseChange: phaseChange
    min/mean/max Tsat = 372.76/372.76/372.76
    min/mean/max mDot = -0.001078464911/-0.001078464911/-0.001078464911
diagonal:  Solving for p_rgh, Initial residual = 0, Final residual = 0, No Iterations 0
PIMPLE: Iteration 4
heatTransferLimitedPhaseChange: phaseChange
    min/mean/max Tsat = 372.76/372.76/372.76
    min/mean/max mDot = -0.001078464911/-0.001078464911/-0.001078464911
MULES: Solving for alpha.steam
MULES: Solving for alpha.water
MULES: Correcting alpha.steam
MULES: Correcting alpha.water
steam fraction, min, max = 0.9901485057 0.9901485057 0.9901485057
water fraction, min, max = 0.009851494266 0.009851494266 0.009851494266
Phase-sum volume fraction, min, max = 1 1 1
MULES: Solving for alpha.steam
MULES: Solving for alpha.water
MULES: Correcting alpha.steam
MULES: Correcting alpha.water
steam fraction, min, max = 0.9901485075 0.9901485075 0.9901485075
water fraction, min, max = 0.009851492516 0.009851492516 0.009851492516
Phase-sum volume fraction, min, max = 1 1 1
MULES: Solving for alpha.steam
MULES: Solving for alpha.water
MULES: Correcting alpha.steam
MULES: Correcting alpha.water
steam fraction, min, max = 0.9901485092 0.9901485092 0.9901485092
water fraction, min, max = 0.009851490766 0.009851490766 0.009851490766
Phase-sum volume fraction, min, max = 1 1 1
Constructing momentum equations
diagonal:  Solving for h.steam, Initial residual = 0, Final residual = 0, No Iterations 0
diagonal:  Solving for h.water, Initial residual = 0, Final residual = 0, No Iterations 0
steam min/max T 373.2226418 - 373.2226418
water min/max T 372.76 - 372.76
heatTransferLimitedPhaseChange: phaseChange
    min/mean/max Tsat = 372.76/372.76/372.76
    min/mean/max mDot = -0.001078467814/-0.001078467814/-0.001078467814
diagonal:  Solving for p_rgh, Initial residual = 0, Final residual = 0, No Iterations 0
PIMPLE: Iteration 5
heatTransferLimitedPhaseChange: phaseChange
    min/mean/max Tsat = 372.76/372.76/372.76
    min/mean/max mDot = -0.001078467814/-0.001078467814/-0.001078467814
MULES: Solving for alpha.steam
MULES: Solving for alpha.water
MULES: Correcting alpha.steam
MULES: Correcting alpha.water
steam fraction, min, max = 0.9901485057 0.9901485057 0.9901485057
water fraction, min, max = 0.009851494266 0.009851494266 0.009851494266
Phase-sum volume fraction, min, max = 1 1 1
MULES: Solving for alpha.steam
MULES: Solving for alpha.water
MULES: Correcting alpha.steam
MULES: Correcting alpha.water
steam fraction, min, max = 0.9901485075 0.9901485075 0.9901485075
water fraction, min, max = 0.009851492516 0.009851492516 0.009851492516
Phase-sum volume fraction, min, max = 1 1 1
MULES: Solving for alpha.steam
MULES: Solving for alpha.water
MULES: Correcting alpha.steam
MULES: Correcting alpha.water
steam fraction, min, max = 0.9901485092 0.9901485092 0.9901485092
water fraction, min, max = 0.009851490766 0.009851490766 0.009851490766
Phase-sum volume fraction, min, max = 1 1 1
Constructing momentum equations
diagonal:  Solving for h.steam, Initial residual = 0, Final residual = 0, No Iterations 0
diagonal:  Solving for h.water, Initial residual = 0, Final residual = 0, No Iterations 0
steam min/max T 373.222642 - 373.222642
water min/max T 372.76 - 372.76
heatTransferLimitedPhaseChange: phaseChange
    min/mean/max Tsat = 372.76/372.76/372.76
    min/mean/max mDot = -0.001078468451/-0.001078468451/-0.001078468451
diagonal:  Solving for p_rgh, Initial residual = 0, Final residual = 0, No Iterations 0
ExecutionTime = 3.255592 s  ClockTime = 3 s

End

