/*---------------------------------------------------------------------------*\
  =========                 |
  \\      /  F ield         | OpenFOAM: The Open Source CFD Toolbox
   \\    /   O peration     | Website:  https://openfoam.org
    \\  /    A nd           | Version:  13
     \\/     M anipulation  |
\*---------------------------------------------------------------------------*/
Build  : 13-19a3d5400c8c
Exec   : foamRun
Date   : Jun 23 2026
Time   : 14:25:43
Host   : "kol-serv"
PID    : 1365986
I/O    : uncollated
Case   : /home/kol/OpenFOAM/OpenFOAM-13/test/multiphaseEuler/heatTransferLimitedPhaseChange/waterEvaporation
nProcs : 1
sigFpe : Enabling floating point exception trapping (FOAM_SIGFPE).
fileModificationChecking : Monitoring run-time modified files using timeStampMaster (fileModificationSkew 10)
allowSystemOperations : Allowing user-supplied system call operations

// * * * * * * * * * * * * * * * * * * * * * * * * * * * * * * * * * * * * * //
Create time

Create mesh for time = 0

Selecting solver multiphaseEuler
No MRF models present

Selecting phaseModel for steam: purePhaseModel
Selecting diameterModel for phase steam: none
Selecting thermodynamics package 
{
    type            heRhoThermo;
    mixture         pureMixture;
    transport       const;
    thermo          eConst;
    equationOfState perfectGas;
    specie          specie;
    energy          sensibleInternalEnergy;
}

Calculating face flux field phi.steam
Selecting turbulence model type laminar
    Selecting laminar stress model Stokes
Selecting thermophysical transport type laminar
Selecting default laminar thermophysical transport model unityLewisFourier
Selecting phaseModel for water: purePhaseModel
Selecting diameterModel for phase water: constant
Selecting thermodynamics package 
{
    type            heRhoThermo;
    mixture         pureMixture;
    transport       const;
    thermo          hConst;
    equationOfState rhoConst;
    specie          specie;
    energy          sensibleEnthalpy;
}

Calculating face flux field phi.water
Selecting turbulence model type laminar
    Selecting laminar stress model Stokes
Selecting thermophysical transport type laminar
Selecting default laminar thermophysical transport model unityLewisFourier
Selecting surfaceTensionCoefficientModel for steam_water: constant
Selecting SidedInterfacialModel<heatTransferModel> blending method for steam_water: continuous
Selecting heatTransferModel for water_dispersedIn_steam_inThe_steam: RanzMarshall
Selecting heatTransferModel for water_dispersedIn_steam_inThe_water: spherical
Courant Number mean: 0 max: 0
Creating fvModels from "constant/fvModels"

Selecting finite volume model type heatTransferLimitedPhaseChange
    Name: phaseChange
Selecting saturationTemperatureModel constant

PIMPLE: No convergence criteria found


PIMPLE: No corrector convergence criteria found
        Calculations will do 5 corrections


PIMPLE: Operating solver in transient mode with 5 outer correctors



Starting time loop

Using dynamicCode for coded continuity at line 2 in "/home/kol/OpenFOAM/OpenFOAM-13/test/multiphaseEuler/heatTransferLimitedPhaseChange/waterEvaporation/system/functions/continuity"
volFieldValue plot read:
    number of cells = 1
    volume = 1
    operation = volAverage

Courant Number mean: 0 max: 0
Time = 0.005s

PIMPLE: Iteration 1
heatTransferLimitedPhaseChange: phaseChange
    min/mean/max Tsat = 372.76/372.76/372.76
    min/mean/max mDot = -4.007988223/-4.007988223/-4.007988223
MULES: Solving for alpha.steam
MULES: Solving for alpha.water
MULES: Correcting alpha.steam
MULES: Correcting alpha.water
steam fraction, min, max = 0.99 0.99 0.99
water fraction, min, max = 0.01 0.01 0.01
Phase-sum volume fraction, min, max = 1 1 1
MULES: Solving for alpha.steam
MULES: Solving for alpha.water
MULES: Correcting alpha.steam
MULES: Correcting alpha.water
steam fraction, min, max = 0.99 0.99 0.99
water fraction, min, max = 0.01 0.01 0.01
Phase-sum volume fraction, min, max = 1 1 1
MULES: Solving for alpha.steam
MULES: Solving for alpha.water
MULES: Correcting alpha.steam
MULES: Correcting alpha.water
steam fraction, min, max = 0.99 0.99 0.99
water fraction, min, max = 0.01 0.01 0.01
Phase-sum volume fraction, min, max = 1 1 1
Constructing momentum equations
diagonal:  Solving for e.steam, Initial residual = 0, Final residual = 0, No Iterations 0
diagonal:  Solving for h.water, Initial residual = 0, Final residual = 0, No Iterations 0
steam min/max T 379.8023787 - 379.8023787
water min/max T 379.0925764 - 379.0925764
heatTransferLimitedPhaseChange: phaseChange
    min/mean/max Tsat = 372.76/372.76/372.76
    min/mean/max mDot = -3.507327574/-3.507327574/-3.507327574
diagonal:  Solving for p_rgh, Initial residual = 0, Final residual = 0, No Iterations 0
PIMPLE: Iteration 2
heatTransferLimitedPhaseChange: phaseChange
    min/mean/max Tsat = 372.76/372.76/372.76
    min/mean/max mDot = -3.50733219/-3.50733219/-3.50733219
MULES: Solving for alpha.steam
MULES: Solving for alpha.water
MULES: Correcting alpha.steam
MULES: Correcting alpha.water
steam fraction, min, max = 0.9900056886 0.9900056886 0.9900056886
water fraction, min, max = 0.009994311372 0.009994311372 0.009994311372
Phase-sum volume fraction, min, max = 1 1 1
MULES: Solving for alpha.steam
MULES: Solving for alpha.water
MULES: Correcting alpha.steam
MULES: Correcting alpha.water
steam fraction, min, max = 0.990011374 0.990011374 0.990011374
water fraction, min, max = 0.009988625981 0.009988625981 0.009988625981
Phase-sum volume fraction, min, max = 1 1 1
MULES: Solving for alpha.steam
MULES: Solving for alpha.water
MULES: Correcting alpha.steam
MULES: Correcting alpha.water
steam fraction, min, max = 0.9900170562 0.9900170562 0.9900170562
water fraction, min, max = 0.009982943823 0.009982943823 0.009982943823
Phase-sum volume fraction, min, max = 1 1 1
Constructing momentum equations
diagonal:  Solving for e.steam, Initial residual = 0, Final residual = 0, No Iterations 0
diagonal:  Solving for h.water, Initial residual = 0, Final residual = 0, No Iterations 0
steam min/max T 382.9433791 - 382.9433791
water min/max T 379.0910291 - 379.0910291
heatTransferLimitedPhaseChange: phaseChange
    min/mean/max Tsat = 372.76/372.76/372.76
    min/mean/max mDot = -3.507918316/-3.507918316/-3.507918316
diagonal:  Solving for p_rgh, Initial residual = 0, Final residual = 0, No Iterations 0
PIMPLE: Iteration 3
heatTransferLimitedPhaseChange: phaseChange
    min/mean/max Tsat = 372.76/372.76/372.76
    min/mean/max mDot = -3.507919606/-3.507919606/-3.507919606
MULES: Solving for alpha.steam
MULES: Solving for alpha.water
MULES: Correcting alpha.steam
MULES: Correcting alpha.water
steam fraction, min, max = 0.9900056993 0.9900056993 0.9900056993
water fraction, min, max = 0.009994300699 0.009994300699 0.009994300699
Phase-sum volume fraction, min, max = 1 1 1
MULES: Solving for alpha.steam
MULES: Solving for alpha.water
MULES: Correcting alpha.steam
MULES: Correcting alpha.water
steam fraction, min, max = 0.9900113954 0.9900113954 0.9900113954
water fraction, min, max = 0.009988604647 0.009988604647 0.009988604647
Phase-sum volume fraction, min, max = 1 1 1
MULES: Solving for alpha.steam
MULES: Solving for alpha.water
MULES: Correcting alpha.steam
MULES: Correcting alpha.water
steam fraction, min, max = 0.9900170882 0.9900170882 0.9900170882
water fraction, min, max = 0.009982911841 0.009982911841 0.009982911841
Phase-sum volume fraction, min, max = 1 1 1
Constructing momentum equations
diagonal:  Solving for e.steam, Initial residual = 0, Final residual = 0, No Iterations 0
diagonal:  Solving for h.water, Initial residual = 0, Final residual = 0, No Iterations 0
steam min/max T 382.9440652 - 382.9440652
water min/max T 379.0924575 - 379.0924575
heatTransferLimitedPhaseChange: phaseChange
    min/mean/max Tsat = 372.76/372.76/372.76
    min/mean/max mDot = -3.508695972/-3.508695972/-3.508695972
diagonal:  Solving for p_rgh, Initial residual = 0, Final residual = 0, No Iterations 0
PIMPLE: Iteration 4
heatTransferLimitedPhaseChange: phaseChange
    min/mean/max Tsat = 372.76/372.76/372.76
    min/mean/max mDot = -3.508695973/-3.508695973/-3.508695973
MULES: Solving for alpha.steam
MULES: Solving for alpha.water
MULES: Correcting alpha.steam
MULES: Correcting alpha.water
steam fraction, min, max = 0.9900057006 0.9900057006 0.9900057006
water fraction, min, max = 0.009994299418 0.009994299418 0.009994299418
Phase-sum volume fraction, min, max = 1 1 1
MULES: Solving for alpha.steam
MULES: Solving for alpha.water
MULES: Correcting alpha.steam
MULES: Correcting alpha.water
steam fraction, min, max = 0.9900113979 0.9900113979 0.9900113979
water fraction, min, max = 0.009988602087 0.009988602087 0.009988602087
Phase-sum volume fraction, min, max = 1 1 1
MULES: Solving for alpha.steam
MULES: Solving for alpha.water
MULES: Correcting alpha.steam
MULES: Correcting alpha.water
steam fraction, min, max = 0.990017092 0.990017092 0.990017092
water fraction, min, max = 0.009982908002 0.009982908002 0.009982908002
Phase-sum volume fraction, min, max = 1 1 1
Constructing momentum equations
diagonal:  Solving for e.steam, Initial residual = 0, Final residual = 0, No Iterations 0
diagonal:  Solving for h.water, Initial residual = 0, Final residual = 0, No Iterations 0
steam min/max T 382.9447977 - 382.9447977
water min/max T 379.0924874 - 379.0924874
heatTransferLimitedPhaseChange: phaseChange
    min/mean/max Tsat = 372.76/372.76/372.76
    min/mean/max mDot = -3.508712803/-3.508712803/-3.508712803
diagonal:  Solving for p_rgh, Initial residual = 0, Final residual = 0, No Iterations 0
PIMPLE: Iteration 5
heatTransferLimitedPhaseChange: phaseChange
    min/mean/max Tsat = 372.76/372.76/372.76
    min/mean/max mDot = -3.508712804/-3.508712804/-3.508712804
MULES: Solving for alpha.steam
MULES: Solving for alpha.water
MULES: Correcting alpha.steam
MULES: Correcting alpha.water
steam fraction, min, max = 0.9900057006 0.9900057006 0.9900057006
water fraction, min, max = 0.009994299389 0.009994299389 0.009994299389
Phase-sum volume fraction, min, max = 1 1 1
MULES: Solving for alpha.steam
MULES: Solving for alpha.water
MULES: Correcting alpha.steam
MULES: Correcting alpha.water
steam fraction, min, max = 0.990011398 0.990011398 0.990011398
water fraction, min, max = 0.009988602028 0.009988602028 0.009988602028
Phase-sum volume fraction, min, max = 1 1 1
MULES: Solving for alpha.steam
MULES: Solving for alpha.water
MULES: Correcting alpha.steam
MULES: Correcting alpha.water
steam fraction, min, max = 0.9900170921 0.9900170921 0.9900170921
water fraction, min, max = 0.009982907914 0.009982907914 0.009982907914
Phase-sum volume fraction, min, max = 1 1 1
Constructing momentum equations
diagonal:  Solving for e.steam, Initial residual = 0, Final residual = 0, No Iterations 0
diagonal:  Solving for h.water, Initial residual = 0, Final residual = 0, No Iterations 0
steam min/max T 382.9448135 - 382.9448135
water min/max T 379.0924877 - 379.0924877
heatTransferLimitedPhaseChange: phaseChange
    min/mean/max Tsat = 372.76/372.76/372.76
    min/mean/max mDot = -3.508713015/-3.508713015/-3.508713015
diagonal:  Solving for p_rgh, Initial residual = 0, Final residual = 0, No Iterations 0
ExecutionTime = 0.167434 s  ClockTime = 0 s

Courant Number mean: 0 max: 0
Time = 0.01s

PIMPLE: Iteration 1
heatTransferLimitedPhaseChange: phaseChange
    min/mean/max Tsat = 372.76/372.76/372.76
    min/mean/max mDot = -3.508713015/-3.508713015/-3.508713015
MULES: Solving for alpha.steam
MULES: Solving for alpha.water
MULES: Correcting alpha.steam
MULES: Correcting alpha.water
steam fraction, min, max = 0.990022783 0.990022783 0.990022783
water fraction, min, max = 0.009977217046 0.009977217046 0.009977217046
Phase-sum volume fraction, min, max = 1 1 1
MULES: Solving for alpha.steam
MULES: Solving for alpha.water
MULES: Correcting alpha.steam
MULES: Correcting alpha.water
steam fraction, min, max = 0.9900284706 0.9900284706 0.9900284706
water fraction, min, max = 0.009971529422 0.009971529422 0.009971529422
Phase-sum volume fraction, min, max = 1 1 1
MULES: Solving for alpha.steam
MULES: Solving for alpha.water
MULES: Correcting alpha.steam
MULES: Correcting alpha.water
steam fraction, min, max = 0.990034155 0.990034155 0.990034155
water fraction, min, max = 0.009965845041 0.009965845041 0.009965845041
Phase-sum volume fraction, min, max = 1 1 1
Constructing momentum equations
diagonal:  Solving for e.steam, Initial residual = 0, Final residual = 0, No Iterations 0
diagonal:  Solving for h.water, Initial residual = 0, Final residual = 0, No Iterations 0
steam min/max T 382.5323536 - 382.5323536
water min/max T 378.2987553 - 378.2987553
heatTransferLimitedPhaseChange: phaseChange
    min/mean/max Tsat = 372.76/372.76/372.76
    min/mean/max mDot = -3.065713054/-3.065713054/-3.065713054
diagonal:  Solving for p_rgh, Initial residual = 0, Final residual = 0, No Iterations 0
PIMPLE: Iteration 2
heatTransferLimitedPhaseChange: phaseChange
    min/mean/max Tsat = 372.76/372.76/372.76
    min/mean/max mDot = -3.065716518/-3.065716518/-3.065716518
MULES: Solving for alpha.steam
MULES: Solving for alpha.water
MULES: Correcting alpha.steam
MULES: Correcting alpha.water
steam fraction, min, max = 0.9900220733 0.9900220733 0.9900220733
water fraction, min, max = 0.009977926691 0.009977926691 0.009977926691
Phase-sum volume fraction, min, max = 1 1 1
MULES: Solving for alpha.steam
MULES: Solving for alpha.water
MULES: Correcting alpha.steam
MULES: Correcting alpha.water
steam fraction, min, max = 0.990027052 0.990027052 0.990027052
water fraction, min, max = 0.009972947953 0.009972947953 0.009972947953
Phase-sum volume fraction, min, max = 1 1 1
MULES: Solving for alpha.steam
MULES: Solving for alpha.water
MULES: Correcting alpha.steam
MULES: Correcting alpha.water
steam fraction, min, max = 0.9900320283 0.9900320283 0.9900320283
water fraction, min, max = 0.0099679717 0.0099679717 0.0099679717
Phase-sum volume fraction, min, max = 1 1 1
Constructing momentum equations
diagonal:  Solving for e.steam, Initial residual = 0, Final residual = 0, No Iterations 0
diagonal:  Solving for h.water, Initial residual = 0, Final residual = 0, No Iterations 0
steam min/max T 385.2512757 - 385.2512757
water min/max T 378.2981346 - 378.2981346
heatTransferLimitedPhaseChange: phaseChange
    min/mean/max Tsat = 372.76/372.76/372.76
    min/mean/max mDot = -3.072442735/-3.072442735/-3.072442735
diagonal:  Solving for p_rgh, Initial residual = 0, Final residual = 0, No Iterations 0
PIMPLE: Iteration 3
heatTransferLimitedPhaseChange: phaseChange
    min/mean/max Tsat = 372.76/372.76/372.76
    min/mean/max mDot = -3.072443746/-3.072443746/-3.072443746
MULES: Solving for alpha.steam
MULES: Solving for alpha.water
MULES: Correcting alpha.steam
MULES: Correcting alpha.water
steam fraction, min, max = 0.9900220832 0.9900220832 0.9900220832
water fraction, min, max = 0.009977916826 0.009977916826 0.009977916826
Phase-sum volume fraction, min, max = 1 1 1
MULES: Solving for alpha.steam
MULES: Solving for alpha.water
MULES: Correcting alpha.steam
MULES: Correcting alpha.water
steam fraction, min, max = 0.9900270718 0.9900270718 0.9900270718
water fraction, min, max = 0.009972928234 0.009972928234 0.009972928234
Phase-sum volume fraction, min, max = 1 1 1
MULES: Solving for alpha.steam
MULES: Solving for alpha.water
MULES: Correcting alpha.steam
MULES: Correcting alpha.water
steam fraction, min, max = 0.9900320579 0.9900320579 0.9900320579
water fraction, min, max = 0.009967942136 0.009967942136 0.009967942136
Phase-sum volume fraction, min, max = 1 1 1
Constructing momentum equations
diagonal:  Solving for e.steam, Initial residual = 0, Final residual = 0, No Iterations 0
diagonal:  Solving for h.water, Initial residual = 0, Final residual = 0, No Iterations 0
steam min/max T 385.2567546 - 385.2567546
water min/max T 378.2980474 - 378.2980474
heatTransferLimitedPhaseChange: phaseChange
    min/mean/max Tsat = 372.76/372.76/372.76
    min/mean/max mDot = -3.07239964/-3.07239964/-3.07239964
diagonal:  Solving for p_rgh, Initial residual = 0, Final residual = 0, No Iterations 0
PIMPLE: Iteration 4
heatTransferLimitedPhaseChange: phaseChange
    min/mean/max Tsat = 372.76/372.76/372.76
    min/mean/max mDot = -3.072399642/-3.072399642/-3.072399642
MULES: Solving for alpha.steam
MULES: Solving for alpha.water
MULES: Correcting alpha.steam
MULES: Correcting alpha.water
steam fraction, min, max = 0.9900220831 0.9900220831 0.9900220831
water fraction, min, max = 0.009977916882 0.009977916882 0.009977916882
Phase-sum volume fraction, min, max = 1 1 1
MULES: Solving for alpha.steam
MULES: Solving for alpha.water
MULES: Correcting alpha.steam
MULES: Correcting alpha.water
steam fraction, min, max = 0.9900270717 0.9900270717 0.9900270717
water fraction, min, max = 0.009972928345 0.009972928345 0.009972928345
Phase-sum volume fraction, min, max = 1 1 1
MULES: Solving for alpha.steam
MULES: Solving for alpha.water
MULES: Correcting alpha.steam
MULES: Correcting alpha.water
steam fraction, min, max = 0.9900320577 0.9900320577 0.9900320577
water fraction, min, max = 0.009967942302 0.009967942302 0.009967942302
Phase-sum volume fraction, min, max = 1 1 1
Constructing momentum equations
diagonal:  Solving for e.steam, Initial residual = 0, Final residual = 0, No Iterations 0
diagonal:  Solving for h.water, Initial residual = 0, Final residual = 0, No Iterations 0
steam min/max T 385.2567169 - 385.2567169
water min/max T 378.2980719 - 378.2980719
heatTransferLimitedPhaseChange: phaseChange
    min/mean/max Tsat = 372.76/372.76/372.76
    min/mean/max mDot = -3.072413057/-3.072413057/-3.072413057
diagonal:  Solving for p_rgh, Initial residual = 0, Final residual = 0, No Iterations 0
PIMPLE: Iteration 5
heatTransferLimitedPhaseChange: phaseChange
    min/mean/max Tsat = 372.76/372.76/372.76
    min/mean/max mDot = -3.072413057/-3.072413057/-3.072413057
MULES: Solving for alpha.steam
MULES: Solving for alpha.water
MULES: Correcting alpha.steam
MULES: Correcting alpha.water
steam fraction, min, max = 0.9900220831 0.9900220831 0.9900220831
water fraction, min, max = 0.00997791686 0.00997791686 0.00997791686
Phase-sum volume fraction, min, max = 1 1 1
MULES: Solving for alpha.steam
MULES: Solving for alpha.water
MULES: Correcting alpha.steam
MULES: Correcting alpha.water
steam fraction, min, max = 0.9900270717 0.9900270717 0.9900270717
water fraction, min, max = 0.009972928301 0.009972928301 0.009972928301
Phase-sum volume fraction, min, max = 1 1 1
MULES: Solving for alpha.steam
MULES: Solving for alpha.water
MULES: Correcting alpha.steam
MULES: Correcting alpha.water
steam fraction, min, max = 0.9900320578 0.9900320578 0.9900320578
water fraction, min, max = 0.009967942237 0.009967942237 0.009967942237
Phase-sum volume fraction, min, max = 1 1 1
Constructing momentum equations
diagonal:  Solving for e.steam, Initial residual = 0, Final residual = 0, No Iterations 0
diagonal:  Solving for h.water, Initial residual = 0, Final residual = 0, No Iterations 0
steam min/max T 385.2567287 - 385.2567287
water min/max T 378.2980719 - 378.2980719
heatTransferLimitedPhaseChange: phaseChange
    min/mean/max Tsat = 372.76/372.76/372.76
    min/mean/max mDot = -3.0724131/-3.0724131/-3.0724131
diagonal:  Solving for p_rgh, Initial residual = 0, Final residual = 0, No Iterations 0
ExecutionTime = 0.18301 s  ClockTime = 0 s

Courant Number mean: 0 max: 0
Time = 0.015s

PIMPLE: Iteration 1
heatTransferLimitedPhaseChange: phaseChange
    min/mean/max Tsat = 372.76/372.76/372.76
    min/mean/max mDot = -3.0724131/-3.0724131/-3.0724131
MULES: Solving for alpha.steam
MULES: Solving for alpha.water
MULES: Correcting alpha.steam
MULES: Correcting alpha.water
steam fraction, min, max = 0.9900370413 0.9900370413 0.9900370413
water fraction, min, max = 0.009962958665 0.009962958665 0.009962958665
Phase-sum volume fraction, min, max = 1 1 1
MULES: Solving for alpha.steam
MULES: Solving for alpha.water
MULES: Correcting alpha.steam
MULES: Correcting alpha.water
steam fraction, min, max = 0.9900420224 0.9900420224 0.9900420224
water fraction, min, max = 0.009957977584 0.009957977584 0.009957977584
Phase-sum volume fraction, min, max = 1 1 1
MULES: Solving for alpha.steam
MULES: Solving for alpha.water
MULES: Correcting alpha.steam
MULES: Correcting alpha.water
steam fraction, min, max = 0.990047001 0.990047001 0.990047001
water fraction, min, max = 0.009952998994 0.009952998994 0.009952998994
Phase-sum volume fraction, min, max = 1 1 1
Constructing momentum equations
diagonal:  Solving for e.steam, Initial residual = 0, Final residual = 0, No Iterations 0
diagonal:  Solving for h.water, Initial residual = 0, Final residual = 0, No Iterations 0
steam min/max T 384.7123434 - 384.7123434
water min/max T 377.6034118 - 377.6034118
heatTransferLimitedPhaseChange: phaseChange
    min/mean/max Tsat = 372.76/372.76/372.76
    min/mean/max mDot = -2.685410733/-2.685410733/-2.685410733
diagonal:  Solving for p_rgh, Initial residual = 0, Final residual = 0, No Iterations 0
PIMPLE: Iteration 2
heatTransferLimitedPhaseChange: phaseChange
    min/mean/max Tsat = 372.76/372.76/372.76
    min/mean/max mDot = -2.685413345/-2.685413345/-2.685413345
MULES: Solving for alpha.steam
MULES: Solving for alpha.water
MULES: Correcting alpha.steam
MULES: Correcting alpha.water
steam fraction, min, max = 0.9900364204 0.9900364204 0.9900364204
water fraction, min, max = 0.009963579586 0.009963579586 0.009963579586
Phase-sum volume fraction, min, max = 1 1 1
MULES: Solving for alpha.steam
MULES: Solving for alpha.water
MULES: Correcting alpha.steam
MULES: Correcting alpha.water
steam fraction, min, max = 0.9900407812 0.9900407812 0.9900407812
water fraction, min, max = 0.009959218844 0.009959218844 0.009959218844
Phase-sum volume fraction, min, max = 1 1 1
MULES: Solving for alpha.steam
MULES: Solving for alpha.water
MULES: Correcting alpha.steam
MULES: Correcting alpha.water
steam fraction, min, max = 0.99004514 0.99004514 0.99004514
water fraction, min, max = 0.009954860011 0.009954860011 0.009954860011
Phase-sum volume fraction, min, max = 1 1 1
Constructing momentum equations
diagonal:  Solving for e.steam, Initial residual = 0, Final residual = 0, No Iterations 0
diagonal:  Solving for h.water, Initial residual = 0, Final residual = 0, No Iterations 0
steam min/max T 387.0716248 - 387.0716248
water min/max T 377.6028536 - 377.6028536
heatTransferLimitedPhaseChange: phaseChange
    min/mean/max Tsat = 372.76/372.76/372.76
    min/mean/max mDot = -2.691166621/-2.691166621/-2.691166621
diagonal:  Solving for p_rgh, Initial residual = 0, Final residual = 0, No Iterations 0
PIMPLE: Iteration 3
heatTransferLimitedPhaseChange: phaseChange
    min/mean/max Tsat = 372.76/372.76/372.76
    min/mean/max mDot = -2.691167406/-2.691167406/-2.691167406
MULES: Solving for alpha.steam
MULES: Solving for alpha.water
MULES: Correcting alpha.steam
MULES: Correcting alpha.water
steam fraction, min, max = 0.9900364289 0.9900364289 0.9900364289
water fraction, min, max = 0.009963571056 0.009963571056 0.009963571056
Phase-sum volume fraction, min, max = 1 1 1
MULES: Solving for alpha.steam
MULES: Solving for alpha.water
MULES: Correcting alpha.steam
MULES: Correcting alpha.water
steam fraction, min, max = 0.9900407982 0.9900407982 0.9900407982
water fraction, min, max = 0.009959201792 0.009959201792 0.009959201792
Phase-sum volume fraction, min, max = 1 1 1
MULES: Solving for alpha.steam
MULES: Solving for alpha.water
MULES: Correcting alpha.steam
MULES: Correcting alpha.water
steam fraction, min, max = 0.9900451656 0.9900451656 0.9900451656
water fraction, min, max = 0.009954834444 0.009954834444 0.009954834444
Phase-sum volume fraction, min, max = 1 1 1
Constructing momentum equations
diagonal:  Solving for e.steam, Initial residual = 0, Final residual = 0, No Iterations 0
diagonal:  Solving for h.water, Initial residual = 0, Final residual = 0, No Iterations 0
steam min/max T 387.0760904 - 387.0760904
water min/max T 377.6027908 - 377.6027908
heatTransferLimitedPhaseChange: phaseChange
    min/mean/max Tsat = 372.76/372.76/372.76
    min/mean/max mDot = -2.691136553/-2.691136553/-2.691136553
diagonal:  Solving for p_rgh, Initial residual = 0, Final residual = 0, No Iterations 0
PIMPLE: Iteration 4
heatTransferLimitedPhaseChange: phaseChange
    min/mean/max Tsat = 372.76/372.76/372.76
    min/mean/max mDot = -2.691136555/-2.691136555/-2.691136555
MULES: Solving for alpha.steam
MULES: Solving for alpha.water
MULES: Correcting alpha.steam
MULES: Correcting alpha.water
steam fraction, min, max = 0.9900364289 0.9900364289 0.9900364289
water fraction, min, max = 0.009963571093 0.009963571093 0.009963571093
Phase-sum volume fraction, min, max = 1 1 1
MULES: Solving for alpha.steam
MULES: Solving for alpha.water
MULES: Correcting alpha.steam
MULES: Correcting alpha.water
steam fraction, min, max = 0.9900407981 0.9900407981 0.9900407981
water fraction, min, max = 0.009959201867 0.009959201867 0.009959201867
Phase-sum volume fraction, min, max = 1 1 1
MULES: Solving for alpha.steam
MULES: Solving for alpha.water
MULES: Correcting alpha.steam
MULES: Correcting alpha.water
steam fraction, min, max = 0.9900451654 0.9900451654 0.9900451654
water fraction, min, max = 0.009954834557 0.009954834557 0.009954834557
Phase-sum volume fraction, min, max = 1 1 1
Constructing momentum equations
diagonal:  Solving for e.steam, Initial residual = 0, Final residual = 0, No Iterations 0
diagonal:  Solving for h.water, Initial residual = 0, Final residual = 0, No Iterations 0
steam min/max T 387.0760654 - 387.0760654
water min/max T 377.6028122 - 377.6028122
heatTransferLimitedPhaseChange: phaseChange
    min/mean/max Tsat = 372.76/372.76/372.76
    min/mean/max mDot = -2.691148304/-2.691148304/-2.691148304
diagonal:  Solving for p_rgh, Initial residual = 0, Final residual = 0, No Iterations 0
PIMPLE: Iteration 5
heatTransferLimitedPhaseChange: phaseChange
    min/mean/max Tsat = 372.76/372.76/372.76
    min/mean/max mDot = -2.691148304/-2.691148304/-2.691148304
MULES: Solving for alpha.steam
MULES: Solving for alpha.water
MULES: Correcting alpha.steam
MULES: Correcting alpha.water
steam fraction, min, max = 0.9900364289 0.9900364289 0.9900364289
water fraction, min, max = 0.009963571074 0.009963571074 0.009963571074
Phase-sum volume fraction, min, max = 1 1 1
MULES: Solving for alpha.steam
MULES: Solving for alpha.water
MULES: Correcting alpha.steam
MULES: Correcting alpha.water
steam fraction, min, max = 0.9900407982 0.9900407982 0.9900407982
water fraction, min, max = 0.009959201829 0.009959201829 0.009959201829
Phase-sum volume fraction, min, max = 1 1 1
MULES: Solving for alpha.steam
MULES: Solving for alpha.water
MULES: Correcting alpha.steam
MULES: Correcting alpha.water
steam fraction, min, max = 0.9900451655 0.9900451655 0.9900451655
water fraction, min, max = 0.0099548345 0.0099548345 0.0099548345
Phase-sum volume fraction, min, max = 1 1 1
Constructing momentum equations
diagonal:  Solving for e.steam, Initial residual = 0, Final residual = 0, No Iterations 0
diagonal:  Solving for h.water, Initial residual = 0, Final residual = 0, No Iterations 0
steam min/max T 387.0760752 - 387.0760752
water min/max T 377.6028123 - 377.6028123
heatTransferLimitedPhaseChange: phaseChange
    min/mean/max Tsat = 372.76/372.76/372.76
    min/mean/max mDot = -2.691148341/-2.691148341/-2.691148341
diagonal:  Solving for p_rgh, Initial residual = 0, Final residual = 0, No Iterations 0
ExecutionTime = 0.198474 s  ClockTime = 0 s

Courant Number mean: 0 max: 0
Time = 0.02s

PIMPLE: Iteration 1
heatTransferLimitedPhaseChange: phaseChange
    min/mean/max Tsat = 372.76/372.76/372.76
    min/mean/max mDot = -2.691148341/-2.691148341/-2.691148341
MULES: Solving for alpha.steam
MULES: Solving for alpha.water
MULES: Correcting alpha.steam
MULES: Correcting alpha.water
steam fraction, min, max = 0.9900495309 0.9900495309 0.9900495309
water fraction, min, max = 0.009950469086 0.009950469086 0.009950469086
Phase-sum volume fraction, min, max = 1 1 1
MULES: Solving for alpha.steam
MULES: Solving for alpha.water
MULES: Correcting alpha.steam
MULES: Correcting alpha.water
steam fraction, min, max = 0.9900538944 0.9900538944 0.9900538944
water fraction, min, max = 0.009946105586 0.009946105586 0.009946105586
Phase-sum volume fraction, min, max = 1 1 1
MULES: Solving for alpha.steam
MULES: Solving for alpha.water
MULES: Correcting alpha.steam
MULES: Correcting alpha.water
steam fraction, min, max = 0.990058256 0.990058256 0.990058256
water fraction, min, max = 0.009941744 0.009941744 0.009941744
Phase-sum volume fraction, min, max = 1 1 1
Constructing momentum equations
diagonal:  Solving for e.steam, Initial residual = 0, Final residual = 0, No Iterations 0
diagonal:  Solving for h.water, Initial residual = 0, Final residual = 0, No Iterations 0
steam min/max T 386.4538268 - 386.4538268
water min/max T 376.9949758 - 376.9949758
heatTransferLimitedPhaseChange: phaseChange
    min/mean/max Tsat = 372.76/372.76/372.76
    min/mean/max mDot = -2.353042488/-2.353042488/-2.353042488
diagonal:  Solving for p_rgh, Initial residual = 0, Final residual = 0, No Iterations 0
PIMPLE: Iteration 2
heatTransferLimitedPhaseChange: phaseChange
    min/mean/max Tsat = 372.76/372.76/372.76
    min/mean/max mDot = -2.353044458/-2.353044458/-2.353044458
MULES: Solving for alpha.steam
MULES: Solving for alpha.water
MULES: Correcting alpha.steam
MULES: Correcting alpha.water
steam fraction, min, max = 0.9900489877 0.9900489877 0.9900489877
water fraction, min, max = 0.009951012306 0.009951012306 0.009951012306
Phase-sum volume fraction, min, max = 1 1 1
MULES: Solving for alpha.steam
MULES: Solving for alpha.water
MULES: Correcting alpha.steam
MULES: Correcting alpha.water
steam fraction, min, max = 0.9900528084 0.9900528084 0.9900528084
water fraction, min, max = 0.009947191579 0.009947191579 0.009947191579
Phase-sum volume fraction, min, max = 1 1 1
MULES: Solving for alpha.steam
MULES: Solving for alpha.water
MULES: Correcting alpha.steam
MULES: Correcting alpha.water
steam fraction, min, max = 0.9900566277 0.9900566277 0.9900566277
water fraction, min, max = 0.009943372319 0.009943372319 0.009943372319
Phase-sum volume fraction, min, max = 1 1 1
Constructing momentum equations
diagonal:  Solving for e.steam, Initial residual = 0, Final residual = 0, No Iterations 0
diagonal:  Solving for h.water, Initial residual = 0, Final residual = 0, No Iterations 0
steam min/max T 388.5028658 - 388.5028658
water min/max T 376.9944765 - 376.9944765
heatTransferLimitedPhaseChange: phaseChange
    min/mean/max Tsat = 372.76/372.76/372.76
    min/mean/max mDot = -2.357977263/-2.357977263/-2.357977263
diagonal:  Solving for p_rgh, Initial residual = 0, Final residual = 0, No Iterations 0
PIMPLE: Iteration 3
heatTransferLimitedPhaseChange: phaseChange
    min/mean/max Tsat = 372.76/372.76/372.76
    min/mean/max mDot = -2.357977873/-2.357977873/-2.357977873
MULES: Solving for alpha.steam
MULES: Solving for alpha.water
MULES: Correcting alpha.steam
MULES: Correcting alpha.water
steam fraction, min, max = 0.9900489951 0.9900489951 0.9900489951
water fraction, min, max = 0.00995100492 0.00995100492 0.00995100492
Phase-sum volume fraction, min, max = 1 1 1
MULES: Solving for alpha.steam
MULES: Solving for alpha.water
MULES: Correcting alpha.steam
MULES: Correcting alpha.water
steam fraction, min, max = 0.9900528232 0.9900528232 0.9900528232
water fraction, min, max = 0.009947176813 0.009947176813 0.009947176813
Phase-sum volume fraction, min, max = 1 1 1
MULES: Solving for alpha.steam
MULES: Solving for alpha.water
MULES: Correcting alpha.steam
MULES: Correcting alpha.water
steam fraction, min, max = 0.9900566498 0.9900566498 0.9900566498
water fraction, min, max = 0.009943350179 0.009943350179 0.009943350179
Phase-sum volume fraction, min, max = 1 1 1
Constructing momentum equations
diagonal:  Solving for e.steam, Initial residual = 0, Final residual = 0, No Iterations 0
diagonal:  Solving for h.water, Initial residual = 0, Final residual = 0, No Iterations 0
steam min/max T 388.5065418 - 388.5065418
water min/max T 376.9944319 - 376.9944319
heatTransferLimitedPhaseChange: phaseChange
    min/mean/max Tsat = 372.76/372.76/372.76
    min/mean/max mDot = -2.357956822/-2.357956822/-2.357956822
diagonal:  Solving for p_rgh, Initial residual = 0, Final residual = 0, No Iterations 0
PIMPLE: Iteration 4
heatTransferLimitedPhaseChange: phaseChange
    min/mean/max Tsat = 372.76/372.76/372.76
    min/mean/max mDot = -2.357956823/-2.357956823/-2.357956823
MULES: Solving for alpha.steam
MULES: Solving for alpha.water
MULES: Correcting alpha.steam
MULES: Correcting alpha.water
steam fraction, min, max = 0.9900489951 0.9900489951 0.9900489951
water fraction, min, max = 0.009951004944 0.009951004944 0.009951004944
Phase-sum volume fraction, min, max = 1 1 1
MULES: Solving for alpha.steam
MULES: Solving for alpha.water
MULES: Correcting alpha.steam
MULES: Correcting alpha.water
steam fraction, min, max = 0.9900528231 0.9900528231 0.9900528231
water fraction, min, max = 0.009947176862 0.009947176862 0.009947176862
Phase-sum volume fraction, min, max = 1 1 1
MULES: Solving for alpha.steam
MULES: Solving for alpha.water
MULES: Correcting alpha.steam
MULES: Correcting alpha.water
steam fraction, min, max = 0.9900566497 0.9900566497 0.9900566497
water fraction, min, max = 0.009943350253 0.009943350253 0.009943350253
Phase-sum volume fraction, min, max = 1 1 1
Constructing momentum equations
diagonal:  Solving for e.steam, Initial residual = 0, Final residual = 0, No Iterations 0
diagonal:  Solving for h.water, Initial residual = 0, Final residual = 0, No Iterations 0
steam min/max T 388.5065257 - 388.5065257
water min/max T 376.9944507 - 376.9944507
heatTransferLimitedPhaseChange: phaseChange
    min/mean/max Tsat = 372.76/372.76/372.76
    min/mean/max mDot = -2.357967108/-2.357967108/-2.357967108
diagonal:  Solving for p_rgh, Initial residual = 0, Final residual = 0, No Iterations 0
PIMPLE: Iteration 5
heatTransferLimitedPhaseChange: phaseChange
    min/mean/max Tsat = 372.76/372.76/372.76
    min/mean/max mDot = -2.357967108/-2.357967108/-2.357967108
MULES: Solving for alpha.steam
MULES: Solving for alpha.water
MULES: Correcting alpha.steam
MULES: Correcting alpha.water
steam fraction, min, max = 0.9900489951 0.9900489951 0.9900489951
water fraction, min, max = 0.009951004928 0.009951004928 0.009951004928
Phase-sum volume fraction, min, max = 1 1 1
MULES: Solving for alpha.steam
MULES: Solving for alpha.water
MULES: Correcting alpha.steam
MULES: Correcting alpha.water
steam fraction, min, max = 0.9900528232 0.9900528232 0.9900528232
water fraction, min, max = 0.009947176829 0.009947176829 0.009947176829
Phase-sum volume fraction, min, max = 1 1 1
MULES: Solving for alpha.steam
MULES: Solving for alpha.water
MULES: Correcting alpha.steam
MULES: Correcting alpha.water
steam fraction, min, max = 0.9900566498 0.9900566498 0.9900566498
water fraction, min, max = 0.009943350203 0.009943350203 0.009943350203
Phase-sum volume fraction, min, max = 1 1 1
Constructing momentum equations
diagonal:  Solving for e.steam, Initial residual = 0, Final residual = 0, No Iterations 0
diagonal:  Solving for h.water, Initial residual = 0, Final residual = 0, No Iterations 0
steam min/max T 388.5065339 - 388.5065339
water min/max T 376.9944507 - 376.9944507
heatTransferLimitedPhaseChange: phaseChange
    min/mean/max Tsat = 372.76/372.76/372.76
    min/mean/max mDot = -2.357967141/-2.357967141/-2.357967141
diagonal:  Solving for p_rgh, Initial residual = 0, Final residual = 0, No Iterations 0
ExecutionTime = 0.214023 s  ClockTime = 0 s

Courant Number mean: 0 max: 0
Time = 0.025s

PIMPLE: Iteration 1
heatTransferLimitedPhaseChange: phaseChange
    min/mean/max Tsat = 372.76/372.76/372.76
    min/mean/max mDot = -2.357967141/-2.357967141/-2.357967141
MULES: Solving for alpha.steam
MULES: Solving for alpha.water
MULES: Correcting alpha.steam
MULES: Correcting alpha.water
steam fraction, min, max = 0.990060475 0.990060475 0.990060475
water fraction, min, max = 0.009939525048 0.009939525048 0.009939525048
Phase-sum volume fraction, min, max = 1 1 1
MULES: Solving for alpha.steam
MULES: Solving for alpha.water
MULES: Correcting alpha.steam
MULES: Correcting alpha.water
steam fraction, min, max = 0.9900642986 0.9900642986 0.9900642986
water fraction, min, max = 0.009935701366 0.009935701366 0.009935701366
Phase-sum volume fraction, min, max = 1 1 1
MULES: Solving for alpha.steam
MULES: Solving for alpha.water
MULES: Correcting alpha.steam
MULES: Correcting alpha.water
steam fraction, min, max = 0.9900681208 0.9900681208 0.9900681208
water fraction, min, max = 0.009931879154 0.009931879154 0.009931879154
Phase-sum volume fraction, min, max = 1 1 1
Constructing momentum equations
diagonal:  Solving for e.steam, Initial residual = 0, Final residual = 0, No Iterations 0
diagonal:  Solving for h.water, Initial residual = 0, Final residual = 0, No Iterations 0
steam min/max T 387.8418508 - 387.8418508
water min/max T 376.462676 - 376.462676
heatTransferLimitedPhaseChange: phaseChange
    min/mean/max Tsat = 372.76/372.76/372.76
    min/mean/max mDot = -2.062553385/-2.062553385/-2.062553385
diagonal:  Solving for p_rgh, Initial residual = 0, Final residual = 0, No Iterations 0
PIMPLE: Iteration 2
heatTransferLimitedPhaseChange: phaseChange
    min/mean/max Tsat = 372.76/372.76/372.76
    min/mean/max mDot = -2.062554871/-2.062554871/-2.062554871
MULES: Solving for alpha.steam
MULES: Solving for alpha.water
MULES: Correcting alpha.steam
MULES: Correcting alpha.water
steam fraction, min, max = 0.9900599997 0.9900599997 0.9900599997
water fraction, min, max = 0.009940000251 0.009940000251 0.009940000251
Phase-sum volume fraction, min, max = 1 1 1
MULES: Solving for alpha.steam
MULES: Solving for alpha.water
MULES: Correcting alpha.steam
MULES: Correcting alpha.water
steam fraction, min, max = 0.9900633486 0.9900633486 0.9900633486
water fraction, min, max = 0.009936651429 0.009936651429 0.009936651429
Phase-sum volume fraction, min, max = 1 1 1
MULES: Solving for alpha.steam
MULES: Solving for alpha.water
MULES: Correcting alpha.steam
MULES: Correcting alpha.water
steam fraction, min, max = 0.9900666963 0.9900666963 0.9900666963
water fraction, min, max = 0.009933303735 0.009933303735 0.009933303735
Phase-sum volume fraction, min, max = 1 1 1
Constructing momentum equations
diagonal:  Solving for e.steam, Initial residual = 0, Final residual = 0, No Iterations 0
diagonal:  Solving for h.water, Initial residual = 0, Final residual = 0, No Iterations 0
steam min/max T 389.6231708 - 389.6231708
water min/max T 376.4622314 - 376.4622314
heatTransferLimitedPhaseChange: phaseChange
    min/mean/max Tsat = 372.76/372.76/372.76
    min/mean/max mDot = -2.066794238/-2.066794238/-2.066794238
diagonal:  Solving for p_rgh, Initial residual = 0, Final residual = 0, No Iterations 0
PIMPLE: Iteration 3
heatTransferLimitedPhaseChange: phaseChange
    min/mean/max Tsat = 372.76/372.76/372.76
    min/mean/max mDot = -2.06679471/-2.06679471/-2.06679471
MULES: Solving for alpha.steam
MULES: Solving for alpha.water
MULES: Correcting alpha.steam
MULES: Correcting alpha.water
steam fraction, min, max = 0.9900600062 0.9900600062 0.9900600062
water fraction, min, max = 0.009939993847 0.009939993847 0.009939993847
Phase-sum volume fraction, min, max = 1 1 1
MULES: Solving for alpha.steam
MULES: Solving for alpha.water
MULES: Correcting alpha.steam
MULES: Correcting alpha.water
steam fraction, min, max = 0.9900633614 0.9900633614 0.9900633614
water fraction, min, max = 0.009936638625 0.009936638625 0.009936638625
Phase-sum volume fraction, min, max = 1 1 1
MULES: Solving for alpha.steam
MULES: Solving for alpha.water
MULES: Correcting alpha.steam
MULES: Correcting alpha.water
steam fraction, min, max = 0.9900667155 0.9900667155 0.9900667155
water fraction, min, max = 0.009933284535 0.009933284535 0.009933284535
Phase-sum volume fraction, min, max = 1 1 1
Constructing momentum equations
diagonal:  Solving for e.steam, Initial residual = 0, Final residual = 0, No Iterations 0
diagonal:  Solving for h.water, Initial residual = 0, Final residual = 0, No Iterations 0
steam min/max T 389.6262234 - 389.6262234
water min/max T 376.4622003 - 376.4622003
heatTransferLimitedPhaseChange: phaseChange
    min/mean/max Tsat = 372.76/372.76/372.76
    min/mean/max mDot = -2.066780833/-2.066780833/-2.066780833
diagonal:  Solving for p_rgh, Initial residual = 0, Final residual = 0, No Iterations 0
PIMPLE: Iteration 4
heatTransferLimitedPhaseChange: phaseChange
    min/mean/max Tsat = 372.76/372.76/372.76
    min/mean/max mDot = -2.066780834/-2.066780834/-2.066780834
MULES: Solving for alpha.steam
MULES: Solving for alpha.water
MULES: Correcting alpha.steam
MULES: Correcting alpha.water
steam fraction, min, max = 0.9900600061 0.9900600061 0.9900600061
water fraction, min, max = 0.009939993862 0.009939993862 0.009939993862
Phase-sum volume fraction, min, max = 1 1 1
MULES: Solving for alpha.steam
MULES: Solving for alpha.water
MULES: Correcting alpha.steam
MULES: Correcting alpha.water
steam fraction, min, max = 0.9900633613 0.9900633613 0.9900633613
water fraction, min, max = 0.009936638655 0.009936638655 0.009936638655
Phase-sum volume fraction, min, max = 1 1 1
MULES: Solving for alpha.steam
MULES: Solving for alpha.water
MULES: Correcting alpha.steam
MULES: Correcting alpha.water
steam fraction, min, max = 0.9900667154 0.9900667154 0.9900667154
water fraction, min, max = 0.00993328458 0.00993328458 0.00993328458
Phase-sum volume fraction, min, max = 1 1 1
Constructing momentum equations
diagonal:  Solving for e.steam, Initial residual = 0, Final residual = 0, No Iterations 0
diagonal:  Solving for h.water, Initial residual = 0, Final residual = 0, No Iterations 0
steam min/max T 389.6262133 - 389.6262133
water min/max T 376.4622167 - 376.4622167
heatTransferLimitedPhaseChange: phaseChange
    min/mean/max Tsat = 372.76/372.76/372.76
    min/mean/max mDot = -2.066789836/-2.066789836/-2.066789836
diagonal:  Solving for p_rgh, Initial residual = 0, Final residual = 0, No Iterations 0
PIMPLE: Iteration 5
heatTransferLimitedPhaseChange: phaseChange
    min/mean/max Tsat = 372.76/372.76/372.76
    min/mean/max mDot = -2.066789836/-2.066789836/-2.066789836
MULES: Solving for alpha.steam
MULES: Solving for alpha.water
MULES: Correcting alpha.steam
MULES: Correcting alpha.water
steam fraction, min, max = 0.9900600062 0.9900600062 0.9900600062
water fraction, min, max = 0.009939993848 0.009939993848 0.009939993848
Phase-sum volume fraction, min, max = 1 1 1
MULES: Solving for alpha.steam
MULES: Solving for alpha.water
MULES: Correcting alpha.steam
MULES: Correcting alpha.water
steam fraction, min, max = 0.9900633614 0.9900633614 0.9900633614
water fraction, min, max = 0.009936638626 0.009936638626 0.009936638626
Phase-sum volume fraction, min, max = 1 1 1
MULES: Solving for alpha.steam
MULES: Solving for alpha.water
MULES: Correcting alpha.steam
MULES: Correcting alpha.water
steam fraction, min, max = 0.9900667155 0.9900667155 0.9900667155
water fraction, min, max = 0.009933284537 0.009933284537 0.009933284537
Phase-sum volume fraction, min, max = 1 1 1
Constructing momentum equations
diagonal:  Solving for e.steam, Initial residual = 0, Final residual = 0, No Iterations 0
diagonal:  Solving for h.water, Initial residual = 0, Final residual = 0, No Iterations 0
steam min/max T 389.6262202 - 389.6262202
water min/max T 376.4622168 - 376.4622168
heatTransferLimitedPhaseChange: phaseChange
    min/mean/max Tsat = 372.76/372.76/372.76
    min/mean/max mDot = -2.066789864/-2.066789864/-2.066789864
diagonal:  Solving for p_rgh, Initial residual = 0, Final residual = 0, No Iterations 0
ExecutionTime = 0.229534 s  ClockTime = 0 s

Courant Number mean: 0 max: 0
Time = 0.03s

PIMPLE: Iteration 1
heatTransferLimitedPhaseChange: phaseChange
    min/mean/max Tsat = 372.76/372.76/372.76
    min/mean/max mDot = -2.066789864/-2.066789864/-2.066789864
MULES: Solving for alpha.steam
MULES: Solving for alpha.water
MULES: Correcting alpha.steam
MULES: Correcting alpha.water
steam fraction, min, max = 0.9900700684 0.9900700684 0.9900700684
water fraction, min, max = 0.009929931579 0.009929931579 0.009929931579
Phase-sum volume fraction, min, max = 1 1 1
MULES: Solving for alpha.steam
MULES: Solving for alpha.water
MULES: Correcting alpha.steam
MULES: Correcting alpha.water
steam fraction, min, max = 0.9900734202 0.9900734202 0.9900734202
water fraction, min, max = 0.009926579754 0.009926579754 0.009926579754
Phase-sum volume fraction, min, max = 1 1 1
MULES: Solving for alpha.steam
MULES: Solving for alpha.water
MULES: Correcting alpha.steam
MULES: Correcting alpha.water
steam fraction, min, max = 0.9900767709 0.9900767709 0.9900767709
water fraction, min, max = 0.00992322906 0.00992322906 0.00992322906
Phase-sum volume fraction, min, max = 1 1 1
Constructing momentum equations
diagonal:  Solving for e.steam, Initial residual = 0, Final residual = 0, No Iterations 0
diagonal:  Solving for h.water, Initial residual = 0, Final residual = 0, No Iterations 0
steam min/max T 388.9423126 - 388.9423126
water min/max T 375.9970546 - 375.9970546
heatTransferLimitedPhaseChange: phaseChange
    min/mean/max Tsat = 372.76/372.76/372.76
    min/mean/max mDot = -1.808650393/-1.808650393/-1.808650393
diagonal:  Solving for p_rgh, Initial residual = 0, Final residual = 0, No Iterations 0
PIMPLE: Iteration 2
heatTransferLimitedPhaseChange: phaseChange
    min/mean/max Tsat = 372.76/372.76/372.76
    min/mean/max mDot = -1.808651514/-1.808651514/-1.808651514
MULES: Solving for alpha.steam
MULES: Solving for alpha.water
MULES: Correcting alpha.steam
MULES: Correcting alpha.water
steam fraction, min, max = 0.9900696527 0.9900696527 0.9900696527
water fraction, min, max = 0.009930347263 0.009930347263 0.009930347263
Phase-sum volume fraction, min, max = 1 1 1
MULES: Solving for alpha.steam
MULES: Solving for alpha.water
MULES: Correcting alpha.steam
MULES: Correcting alpha.water
steam fraction, min, max = 0.9900725891 0.9900725891 0.9900725891
water fraction, min, max = 0.009927410859 0.009927410859 0.009927410859
Phase-sum volume fraction, min, max = 1 1 1
MULES: Solving for alpha.steam
MULES: Solving for alpha.water
MULES: Correcting alpha.steam
MULES: Correcting alpha.water
steam fraction, min, max = 0.9900755247 0.9900755247 0.9900755247
water fraction, min, max = 0.009924475322 0.009924475322 0.009924475322
Phase-sum volume fraction, min, max = 1 1 1
Constructing momentum equations
diagonal:  Solving for e.steam, Initial residual = 0, Final residual = 0, No Iterations 0
diagonal:  Solving for h.water, Initial residual = 0, Final residual = 0, No Iterations 0
steam min/max T 390.4924499 - 390.4924499
water min/max T 375.9966605 - 375.9966605
heatTransferLimitedPhaseChange: phaseChange
    min/mean/max Tsat = 372.76/372.76/372.76
    min/mean/max mDot = -1.812303361/-1.812303361/-1.812303361
diagonal:  Solving for p_rgh, Initial residual = 0, Final residual = 0, No Iterations 0
PIMPLE: Iteration 3
heatTransferLimitedPhaseChange: phaseChange
    min/mean/max Tsat = 372.76/372.76/372.76
    min/mean/max mDot = -1.812303727/-1.812303727/-1.812303727
MULES: Solving for alpha.steam
MULES: Solving for alpha.water
MULES: Correcting alpha.steam
MULES: Correcting alpha.water
steam fraction, min, max = 0.9900696583 0.9900696583 0.9900696583
water fraction, min, max = 0.009930341702 0.009930341702 0.009930341702
Phase-sum volume fraction, min, max = 1 1 1
MULES: Solving for alpha.steam
MULES: Solving for alpha.water
MULES: Correcting alpha.steam
MULES: Correcting alpha.water
steam fraction, min, max = 0.9900726003 0.9900726003 0.9900726003
water fraction, min, max = 0.00992739974 0.00992739974 0.00992739974
Phase-sum volume fraction, min, max = 1 1 1
MULES: Solving for alpha.steam
MULES: Solving for alpha.water
MULES: Correcting alpha.steam
MULES: Correcting alpha.water
steam fraction, min, max = 0.9900755414 0.9900755414 0.9900755414
water fraction, min, max = 0.009924458648 0.009924458648 0.009924458648
Phase-sum volume fraction, min, max = 1 1 1
Constructing momentum equations
diagonal:  Solving for e.steam, Initial residual = 0, Final residual = 0, No Iterations 0
diagonal:  Solving for h.water, Initial residual = 0, Final residual = 0, No Iterations 0
steam min/max T 390.4950047 - 390.4950047
water min/max T 375.9966392 - 375.9966392
heatTransferLimitedPhaseChange: phaseChange
    min/mean/max Tsat = 372.76/372.76/372.76
    min/mean/max mDot = -1.812295035/-1.812295035/-1.812295035
diagonal:  Solving for p_rgh, Initial residual = 0, Final residual = 0, No Iterations 0
PIMPLE: Iteration 4
heatTransferLimitedPhaseChange: phaseChange
    min/mean/max Tsat = 372.76/372.76/372.76
    min/mean/max mDot = -1.812295035/-1.812295035/-1.812295035
MULES: Solving for alpha.steam
MULES: Solving for alpha.water
MULES: Correcting alpha.steam
MULES: Correcting alpha.water
steam fraction, min, max = 0.9900696583 0.9900696583 0.9900696583
water fraction, min, max = 0.009930341711 0.009930341711 0.009930341711
Phase-sum volume fraction, min, max = 1 1 1
MULES: Solving for alpha.steam
MULES: Solving for alpha.water
MULES: Correcting alpha.steam
MULES: Correcting alpha.water
steam fraction, min, max = 0.9900726002 0.9900726002 0.9900726002
water fraction, min, max = 0.009927399757 0.009927399757 0.009927399757
Phase-sum volume fraction, min, max = 1 1 1
MULES: Solving for alpha.steam
MULES: Solving for alpha.water
MULES: Correcting alpha.steam
MULES: Correcting alpha.water
steam fraction, min, max = 0.9900755413 0.9900755413 0.9900755413
water fraction, min, max = 0.009924458674 0.009924458674 0.009924458674
Phase-sum volume fraction, min, max = 1 1 1
Constructing momentum equations
diagonal:  Solving for e.steam, Initial residual = 0, Final residual = 0, No Iterations 0
diagonal:  Solving for h.water, Initial residual = 0, Final residual = 0, No Iterations 0
steam min/max T 390.4949987 - 390.4949987
water min/max T 375.9966536 - 375.9966536
heatTransferLimitedPhaseChange: phaseChange
    min/mean/max Tsat = 372.76/372.76/372.76
    min/mean/max mDot = -1.812302915/-1.812302915/-1.812302915
diagonal:  Solving for p_rgh, Initial residual = 0, Final residual = 0, No Iterations 0
PIMPLE: Iteration 5
heatTransferLimitedPhaseChange: phaseChange
    min/mean/max Tsat = 372.76/372.76/372.76
    min/mean/max mDot = -1.812302915/-1.812302915/-1.812302915
MULES: Solving for alpha.steam
MULES: Solving for alpha.water
MULES: Correcting alpha.steam
MULES: Correcting alpha.water
steam fraction, min, max = 0.9900696583 0.9900696583 0.9900696583
water fraction, min, max = 0.009930341698 0.009930341698 0.009930341698
Phase-sum volume fraction, min, max = 1 1 1
MULES: Solving for alpha.steam
MULES: Solving for alpha.water
MULES: Correcting alpha.steam
MULES: Correcting alpha.water
steam fraction, min, max = 0.9900726003 0.9900726003 0.9900726003
water fraction, min, max = 0.009927399731 0.009927399731 0.009927399731
Phase-sum volume fraction, min, max = 1 1 1
MULES: Solving for alpha.steam
MULES: Solving for alpha.water
MULES: Correcting alpha.steam
MULES: Correcting alpha.water
steam fraction, min, max = 0.9900755414 0.9900755414 0.9900755414
water fraction, min, max = 0.009924458636 0.009924458636 0.009924458636
Phase-sum volume fraction, min, max = 1 1 1
Constructing momentum equations
diagonal:  Solving for e.steam, Initial residual = 0, Final residual = 0, No Iterations 0
diagonal:  Solving for h.water, Initial residual = 0, Final residual = 0, No Iterations 0
steam min/max T 390.4950045 - 390.4950045
water min/max T 375.9966536 - 375.9966536
heatTransferLimitedPhaseChange: phaseChange
    min/mean/max Tsat = 372.76/372.76/372.76
    min/mean/max mDot = -1.812302939/-1.812302939/-1.812302939
diagonal:  Solving for p_rgh, Initial residual = 0, Final residual = 0, No Iterations 0
ExecutionTime = 0.245052 s  ClockTime = 0 s

Courant Number mean: 0 max: 0
Time = 0.035s

PIMPLE: Iteration 1
heatTransferLimitedPhaseChange: phaseChange
    min/mean/max Tsat = 372.76/372.76/372.76
    min/mean/max mDot = -1.812302939/-1.812302939/-1.812302939
MULES: Solving for alpha.steam
MULES: Solving for alpha.water
MULES: Correcting alpha.steam
MULES: Correcting alpha.water
steam fraction, min, max = 0.9900784816 0.9900784816 0.9900784816
water fraction, min, max = 0.009921518412 0.009921518412 0.009921518412
Phase-sum volume fraction, min, max = 1 1 1
MULES: Solving for alpha.steam
MULES: Solving for alpha.water
MULES: Correcting alpha.steam
MULES: Correcting alpha.water
steam fraction, min, max = 0.9900814209 0.9900814209 0.9900814209
water fraction, min, max = 0.009918579059 0.009918579059 0.009918579059
Phase-sum volume fraction, min, max = 1 1 1
MULES: Solving for alpha.steam
MULES: Solving for alpha.water
MULES: Correcting alpha.steam
MULES: Correcting alpha.water
steam fraction, min, max = 0.9900843594 0.9900843594 0.9900843594
water fraction, min, max = 0.009915640577 0.009915640577 0.009915640577
Phase-sum volume fraction, min, max = 1 1 1
Constructing momentum equations
diagonal:  Solving for e.steam, Initial residual = 0, Final residual = 0, No Iterations 0
diagonal:  Solving for h.water, Initial residual = 0, Final residual = 0, No Iterations 0
steam min/max T 389.8069822 - 389.8069822
water min/max T 375.5898125 - 375.5898125
heatTransferLimitedPhaseChange: phaseChange
    min/mean/max Tsat = 372.76/372.76/372.76
    min/mean/max mDot = -1.586708306/-1.586708306/-1.586708306
diagonal:  Solving for p_rgh, Initial residual = 0, Final residual = 0, No Iterations 0
PIMPLE: Iteration 2
heatTransferLimitedPhaseChange: phaseChange
    min/mean/max Tsat = 372.76/372.76/372.76
    min/mean/max mDot = -1.586709151/-1.586709151/-1.586709151
MULES: Solving for alpha.steam
MULES: Solving for alpha.water
MULES: Correcting alpha.steam
MULES: Correcting alpha.water
steam fraction, min, max = 0.990078118 0.990078118 0.990078118
water fraction, min, max = 0.009921882026 0.009921882026 0.009921882026
Phase-sum volume fraction, min, max = 1 1 1
MULES: Solving for alpha.steam
MULES: Solving for alpha.water
MULES: Correcting alpha.steam
MULES: Correcting alpha.water
steam fraction, min, max = 0.9900806939 0.9900806939 0.9900806939
water fraction, min, max = 0.009919306085 0.009919306085 0.009919306085
Phase-sum volume fraction, min, max = 1 1 1
MULES: Solving for alpha.steam
MULES: Solving for alpha.water
MULES: Correcting alpha.steam
MULES: Correcting alpha.water
steam fraction, min, max = 0.9900832692 0.9900832692 0.9900832692
water fraction, min, max = 0.009916730813 0.009916730813 0.009916730813
Phase-sum volume fraction, min, max = 1 1 1
Constructing momentum equations
diagonal:  Solving for e.steam, Initial residual = 0, Final residual = 0, No Iterations 0
diagonal:  Solving for h.water, Initial residual = 0, Final residual = 0, No Iterations 0
steam min/max T 391.1573165 - 391.1573165
water min/max T 375.5894644 - 375.5894644
heatTransferLimitedPhaseChange: phaseChange
    min/mean/max Tsat = 372.76/372.76/372.76
    min/mean/max mDot = -1.589861959/-1.589861959/-1.589861959
diagonal:  Solving for p_rgh, Initial residual = 0, Final residual = 0, No Iterations 0
PIMPLE: Iteration 3
heatTransferLimitedPhaseChange: phaseChange
    min/mean/max Tsat = 372.76/372.76/372.76
    min/mean/max mDot = -1.589862242/-1.589862242/-1.589862242
MULES: Solving for alpha.steam
MULES: Solving for alpha.water
MULES: Correcting alpha.steam
MULES: Correcting alpha.water
steam fraction, min, max = 0.9900781228 0.9900781228 0.9900781228
water fraction, min, max = 0.00992187719 0.00992187719 0.00992187719
Phase-sum volume fraction, min, max = 1 1 1
MULES: Solving for alpha.steam
MULES: Solving for alpha.water
MULES: Correcting alpha.steam
MULES: Correcting alpha.water
steam fraction, min, max = 0.9900807036 0.9900807036 0.9900807036
water fraction, min, max = 0.009919296415 0.009919296415 0.009919296415
Phase-sum volume fraction, min, max = 1 1 1
MULES: Solving for alpha.steam
MULES: Solving for alpha.water
MULES: Correcting alpha.steam
MULES: Correcting alpha.water
steam fraction, min, max = 0.9900832837 0.9900832837 0.9900832837
water fraction, min, max = 0.009916716312 0.009916716312 0.009916716312
Phase-sum volume fraction, min, max = 1 1 1
Constructing momentum equations
diagonal:  Solving for e.steam, Initial residual = 0, Final residual = 0, No Iterations 0
diagonal:  Solving for h.water, Initial residual = 0, Final residual = 0, No Iterations 0
steam min/max T 391.1594694 - 391.1594694
water min/max T 375.5894503 - 375.5894503
heatTransferLimitedPhaseChange: phaseChange
    min/mean/max Tsat = 372.76/372.76/372.76
    min/mean/max mDot = -1.589857241/-1.589857241/-1.589857241
diagonal:  Solving for p_rgh, Initial residual = 0, Final residual = 0, No Iterations 0
PIMPLE: Iteration 4
heatTransferLimitedPhaseChange: phaseChange
    min/mean/max Tsat = 372.76/372.76/372.76
    min/mean/max mDot = -1.589857241/-1.589857241/-1.589857241
MULES: Solving for alpha.steam
MULES: Solving for alpha.water
MULES: Correcting alpha.steam
MULES: Correcting alpha.water
steam fraction, min, max = 0.9900781228 0.9900781228 0.9900781228
water fraction, min, max = 0.009921877194 0.009921877194 0.009921877194
Phase-sum volume fraction, min, max = 1 1 1
MULES: Solving for alpha.steam
MULES: Solving for alpha.water
MULES: Correcting alpha.steam
MULES: Correcting alpha.water
steam fraction, min, max = 0.9900807036 0.9900807036 0.9900807036
water fraction, min, max = 0.009919296423 0.009919296423 0.009919296423
Phase-sum volume fraction, min, max = 1 1 1
MULES: Solving for alpha.steam
MULES: Solving for alpha.water
MULES: Correcting alpha.steam
MULES: Correcting alpha.water
steam fraction, min, max = 0.9900832837 0.9900832837 0.9900832837
water fraction, min, max = 0.009916716324 0.009916716324 0.009916716324
Phase-sum volume fraction, min, max = 1 1 1
Constructing momentum equations
diagonal:  Solving for e.steam, Initial residual = 0, Final residual = 0, No Iterations 0
diagonal:  Solving for h.water, Initial residual = 0, Final residual = 0, No Iterations 0
steam min/max T 391.1594661 - 391.1594661
water min/max T 375.5894629 - 375.5894629
heatTransferLimitedPhaseChange: phaseChange
    min/mean/max Tsat = 372.76/372.76/372.76
    min/mean/max mDot = -1.58986414/-1.58986414/-1.58986414
diagonal:  Solving for p_rgh, Initial residual = 0, Final residual = 0, No Iterations 0
PIMPLE: Iteration 5
heatTransferLimitedPhaseChange: phaseChange
    min/mean/max Tsat = 372.76/372.76/372.76
    min/mean/max mDot = -1.58986414/-1.58986414/-1.58986414
MULES: Solving for alpha.steam
MULES: Solving for alpha.water
MULES: Correcting alpha.steam
MULES: Correcting alpha.water
steam fraction, min, max = 0.9900781228 0.9900781228 0.9900781228
water fraction, min, max = 0.009921877183 0.009921877183 0.009921877183
Phase-sum volume fraction, min, max = 1 1 1
MULES: Solving for alpha.steam
MULES: Solving for alpha.water
MULES: Correcting alpha.steam
MULES: Correcting alpha.water
steam fraction, min, max = 0.9900807036 0.9900807036 0.9900807036
water fraction, min, max = 0.009919296401 0.009919296401 0.009919296401
Phase-sum volume fraction, min, max = 1 1 1
MULES: Solving for alpha.steam
MULES: Solving for alpha.water
MULES: Correcting alpha.steam
MULES: Correcting alpha.water
steam fraction, min, max = 0.9900832837 0.9900832837 0.9900832837
water fraction, min, max = 0.00991671629 0.00991671629 0.00991671629
Phase-sum volume fraction, min, max = 1 1 1
Constructing momentum equations
diagonal:  Solving for e.steam, Initial residual = 0, Final residual = 0, No Iterations 0
diagonal:  Solving for h.water, Initial residual = 0, Final residual = 0, No Iterations 0
steam min/max T 391.159471 - 391.159471
water min/max T 375.5894629 - 375.5894629
heatTransferLimitedPhaseChange: phaseChange
    min/mean/max Tsat = 372.76/372.76/372.76
    min/mean/max mDot = -1.589864161/-1.589864161/-1.589864161
diagonal:  Solving for p_rgh, Initial residual = 0, Final residual = 0, No Iterations 0
ExecutionTime = 0.260615 s  ClockTime = 0 s

Courant Number mean: 0 max: 0
Time = 0.04s

PIMPLE: Iteration 1
heatTransferLimitedPhaseChange: phaseChange
    min/mean/max Tsat = 372.76/372.76/372.76
    min/mean/max mDot = -1.589864161/-1.589864161/-1.589864161
MULES: Solving for alpha.steam
MULES: Solving for alpha.water
MULES: Correcting alpha.steam
MULES: Correcting alpha.water
steam fraction, min, max = 0.9900858631 0.9900858631 0.9900858631
water fraction, min, max = 0.009914136851 0.009914136851 0.009914136851
Phase-sum volume fraction, min, max = 1 1 1
MULES: Solving for alpha.steam
MULES: Solving for alpha.water
MULES: Correcting alpha.steam
MULES: Correcting alpha.water
steam fraction, min, max = 0.9900884419 0.9900884419 0.9900884419
water fraction, min, max = 0.009911558082 0.009911558082 0.009911558082
Phase-sum volume fraction, min, max = 1 1 1
MULES: Solving for alpha.steam
MULES: Solving for alpha.water
MULES: Correcting alpha.steam
MULES: Correcting alpha.water
steam fraction, min, max = 0.99009102 0.99009102 0.99009102
water fraction, min, max = 0.009908979984 0.009908979984 0.009908979984
Phase-sum volume fraction, min, max = 1 1 1
Constructing momentum equations
diagonal:  Solving for e.steam, Initial residual = 0, Final residual = 0, No Iterations 0
diagonal:  Solving for h.water, Initial residual = 0, Final residual = 0, No Iterations 0
steam min/max T 390.4770331 - 390.4770331
water min/max T 375.2336709 - 375.2336709
heatTransferLimitedPhaseChange: phaseChange
    min/mean/max Tsat = 372.76/372.76/372.76
    min/mean/max mDot = -1.392686444/-1.392686444/-1.392686444
diagonal:  Solving for p_rgh, Initial residual = 0, Final residual = 0, No Iterations 0
PIMPLE: Iteration 2
heatTransferLimitedPhaseChange: phaseChange
    min/mean/max Tsat = 372.76/372.76/372.76
    min/mean/max mDot = -1.392687081/-1.392687081/-1.392687081
MULES: Solving for alpha.steam
MULES: Solving for alpha.water
MULES: Correcting alpha.steam
MULES: Correcting alpha.water
steam fraction, min, max = 0.9900855451 0.9900855451 0.9900855451
water fraction, min, max = 0.00991445492 0.00991445492 0.00991445492
Phase-sum volume fraction, min, max = 1 1 1
MULES: Solving for alpha.steam
MULES: Solving for alpha.water
MULES: Correcting alpha.steam
MULES: Correcting alpha.water
steam fraction, min, max = 0.9900878059 0.9900878059 0.9900878059
water fraction, min, max = 0.009912194067 0.009912194067 0.009912194067
Phase-sum volume fraction, min, max = 1 1 1
MULES: Solving for alpha.steam
MULES: Solving for alpha.water
MULES: Correcting alpha.steam
MULES: Correcting alpha.water
steam fraction, min, max = 0.9900900663 0.9900900663 0.9900900663
water fraction, min, max = 0.009909933728 0.009909933728 0.009909933728
Phase-sum volume fraction, min, max = 1 1 1
Constructing momentum equations
diagonal:  Solving for e.steam, Initial residual = 0, Final residual = 0, No Iterations 0
diagonal:  Solving for h.water, Initial residual = 0, Final residual = 0, No Iterations 0
steam min/max T 391.6545258 - 391.6545258
water min/max T 375.2333646 - 375.2333646
heatTransferLimitedPhaseChange: phaseChange
    min/mean/max Tsat = 372.76/372.76/372.76
    min/mean/max mDot = -1.395414943/-1.395414943/-1.395414943
diagonal:  Solving for p_rgh, Initial residual = 0, Final residual = 0, No Iterations 0
PIMPLE: Iteration 3
heatTransferLimitedPhaseChange: phaseChange
    min/mean/max Tsat = 372.76/372.76/372.76
    min/mean/max mDot = -1.395415161/-1.395415161/-1.395415161
MULES: Solving for alpha.steam
MULES: Solving for alpha.water
MULES: Correcting alpha.steam
MULES: Correcting alpha.water
steam fraction, min, max = 0.9900855493 0.9900855493 0.9900855493
water fraction, min, max = 0.009914450709 0.009914450709 0.009914450709
Phase-sum volume fraction, min, max = 1 1 1
MULES: Solving for alpha.steam
MULES: Solving for alpha.water
MULES: Correcting alpha.steam
MULES: Correcting alpha.water
steam fraction, min, max = 0.9900878144 0.9900878144 0.9900878144
water fraction, min, max = 0.009912185646 0.009912185646 0.009912185646
Phase-sum volume fraction, min, max = 1 1 1
MULES: Solving for alpha.steam
MULES: Solving for alpha.water
MULES: Correcting alpha.steam
MULES: Correcting alpha.water
steam fraction, min, max = 0.9900900789 0.9900900789 0.9900900789
water fraction, min, max = 0.0099099211 0.0099099211 0.0099099211
Phase-sum volume fraction, min, max = 1 1 1
Constructing momentum equations
diagonal:  Solving for e.steam, Initial residual = 0, Final residual = 0, No Iterations 0
diagonal:  Solving for h.water, Initial residual = 0, Final residual = 0, No Iterations 0
steam min/max T 391.6563512 - 391.6563512
water min/max T 375.2333556 - 375.2333556
heatTransferLimitedPhaseChange: phaseChange
    min/mean/max Tsat = 372.76/372.76/372.76
    min/mean/max mDot = -1.395412736/-1.395412736/-1.395412736
diagonal:  Solving for p_rgh, Initial residual = 0, Final residual = 0, No Iterations 0
PIMPLE: Iteration 4
heatTransferLimitedPhaseChange: phaseChange
    min/mean/max Tsat = 372.76/372.76/372.76
    min/mean/max mDot = -1.395412736/-1.395412736/-1.395412736
MULES: Solving for alpha.steam
MULES: Solving for alpha.water
MULES: Correcting alpha.steam
MULES: Correcting alpha.water
steam fraction, min, max = 0.9900855493 0.9900855493 0.9900855493
water fraction, min, max = 0.00991445071 0.00991445071 0.00991445071
Phase-sum volume fraction, min, max = 1 1 1
MULES: Solving for alpha.steam
MULES: Solving for alpha.water
MULES: Correcting alpha.steam
MULES: Correcting alpha.water
steam fraction, min, max = 0.9900878144 0.9900878144 0.9900878144
water fraction, min, max = 0.009912185647 0.009912185647 0.009912185647
Phase-sum volume fraction, min, max = 1 1 1
MULES: Solving for alpha.steam
MULES: Solving for alpha.water
MULES: Correcting alpha.steam
MULES: Correcting alpha.water
steam fraction, min, max = 0.9900900789 0.9900900789 0.9900900789
water fraction, min, max = 0.009909921102 0.009909921102 0.009909921102
Phase-sum volume fraction, min, max = 1 1 1
Constructing momentum equations
diagonal:  Solving for e.steam, Initial residual = 0, Final residual = 0, No Iterations 0
diagonal:  Solving for h.water, Initial residual = 0, Final residual = 0, No Iterations 0
steam min/max T 391.6563497 - 391.6563497
water min/max T 375.2333666 - 375.2333666
heatTransferLimitedPhaseChange: phaseChange
    min/mean/max Tsat = 372.76/372.76/372.76
    min/mean/max mDot = -1.395418779/-1.395418779/-1.395418779
diagonal:  Solving for p_rgh, Initial residual = 0, Final residual = 0, No Iterations 0
PIMPLE: Iteration 5
heatTransferLimitedPhaseChange: phaseChange
    min/mean/max Tsat = 372.76/372.76/372.76
    min/mean/max mDot = -1.395418779/-1.395418779/-1.395418779
MULES: Solving for alpha.steam
MULES: Solving for alpha.water
MULES: Correcting alpha.steam
MULES: Correcting alpha.water
steam fraction, min, max = 0.9900855493 0.9900855493 0.9900855493
water fraction, min, max = 0.0099144507 0.0099144507 0.0099144507
Phase-sum volume fraction, min, max = 1 1 1
MULES: Solving for alpha.steam
MULES: Solving for alpha.water
MULES: Correcting alpha.steam
MULES: Correcting alpha.water
steam fraction, min, max = 0.9900878144 0.9900878144 0.9900878144
water fraction, min, max = 0.009912185628 0.009912185628 0.009912185628
Phase-sum volume fraction, min, max = 1 1 1
MULES: Solving for alpha.steam
MULES: Solving for alpha.water
MULES: Correcting alpha.steam
MULES: Correcting alpha.water
steam fraction, min, max = 0.9900900789 0.9900900789 0.9900900789
water fraction, min, max = 0.009909921073 0.009909921073 0.009909921073
Phase-sum volume fraction, min, max = 1 1 1
Constructing momentum equations
diagonal:  Solving for e.steam, Initial residual = 0, Final residual = 0, No Iterations 0
diagonal:  Solving for h.water, Initial residual = 0, Final residual = 0, No Iterations 0
steam min/max T 391.6563539 - 391.6563539
water min/max T 375.2333667 - 375.2333667
heatTransferLimitedPhaseChange: phaseChange
    min/mean/max Tsat = 372.76/372.76/372.76
    min/mean/max mDot = -1.395418797/-1.395418797/-1.395418797
diagonal:  Solving for p_rgh, Initial residual = 0, Final residual = 0, No Iterations 0
ExecutionTime = 0.276141 s  ClockTime = 0 s

Courant Number mean: 0 max: 0
Time = 0.045s

PIMPLE: Iteration 1
heatTransferLimitedPhaseChange: phaseChange
    min/mean/max Tsat = 372.76/372.76/372.76
    min/mean/max mDot = -1.395418797/-1.395418797/-1.395418797
MULES: Solving for alpha.steam
MULES: Solving for alpha.water
MULES: Correcting alpha.steam
MULES: Correcting alpha.water
steam fraction, min, max = 0.990092343 0.990092343 0.990092343
water fraction, min, max = 0.009907657035 0.009907657035 0.009907657035
Phase-sum volume fraction, min, max = 1 1 1
MULES: Solving for alpha.steam
MULES: Solving for alpha.water
MULES: Correcting alpha.steam
MULES: Correcting alpha.water
steam fraction, min, max = 0.9900946065 0.9900946065 0.9900946065
water fraction, min, max = 0.009905393515 0.009905393515 0.009905393515
Phase-sum volume fraction, min, max = 1 1 1
MULES: Solving for alpha.steam
MULES: Solving for alpha.water
MULES: Correcting alpha.steam
MULES: Correcting alpha.water
steam fraction, min, max = 0.9900968695 0.9900968695 0.9900968695
water fraction, min, max = 0.009903130511 0.009903130511 0.009903130511
Phase-sum volume fraction, min, max = 1 1 1
Constructing momentum equations
diagonal:  Solving for e.steam, Initial residual = 0, Final residual = 0, No Iterations 0
diagonal:  Solving for h.water, Initial residual = 0, Final residual = 0, No Iterations 0
steam min/max T 390.9855704 - 390.9855704
water min/max T 374.9222491 - 374.9222491
heatTransferLimitedPhaseChange: phaseChange
    min/mean/max Tsat = 372.76/372.76/372.76
    min/mean/max mDot = -1.223055273/-1.223055273/-1.223055273
diagonal:  Solving for p_rgh, Initial residual = 0, Final residual = 0, No Iterations 0
PIMPLE: Iteration 2
heatTransferLimitedPhaseChange: phaseChange
    min/mean/max Tsat = 372.76/372.76/372.76
    min/mean/max mDot = -1.223055752/-1.223055752/-1.223055752
MULES: Solving for alpha.steam
MULES: Solving for alpha.water
MULES: Correcting alpha.steam
MULES: Correcting alpha.water
steam fraction, min, max = 0.9900920647 0.9900920647 0.9900920647
water fraction, min, max = 0.009907935275 0.009907935275 0.009907935275
Phase-sum volume fraction, min, max = 1 1 1
MULES: Solving for alpha.steam
MULES: Solving for alpha.water
MULES: Correcting alpha.steam
MULES: Correcting alpha.water
steam fraction, min, max = 0.9900940501 0.9900940501 0.9900940501
water fraction, min, max = 0.009905949875 0.009905949875 0.009905949875
Phase-sum volume fraction, min, max = 1 1 1
MULES: Solving for alpha.steam
MULES: Solving for alpha.water
MULES: Correcting alpha.steam
MULES: Correcting alpha.water
steam fraction, min, max = 0.9900960351 0.9900960351 0.9900960351
water fraction, min, max = 0.009903964873 0.009903964873 0.009903964873
Phase-sum volume fraction, min, max = 1 1 1
Constructing momentum equations
diagonal:  Solving for e.steam, Initial residual = 0, Final residual = 0, No Iterations 0
diagonal:  Solving for h.water, Initial residual = 0, Final residual = 0, No Iterations 0
steam min/max T 392.0134061 - 392.0134061
water min/max T 374.9219804 - 374.9219804
heatTransferLimitedPhaseChange: phaseChange
    min/mean/max Tsat = 372.76/372.76/372.76
    min/mean/max mDot = -1.225420885/-1.225420885/-1.225420885
diagonal:  Solving for p_rgh, Initial residual = 0, Final residual = 0, No Iterations 0
PIMPLE: Iteration 3
heatTransferLimitedPhaseChange: phaseChange
    min/mean/max Tsat = 372.76/372.76/372.76
    min/mean/max mDot = -1.225421054/-1.225421054/-1.225421054
MULES: Solving for alpha.steam
MULES: Solving for alpha.water
MULES: Correcting alpha.steam
MULES: Correcting alpha.water
steam fraction, min, max = 0.9900920684 0.9900920684 0.9900920684
water fraction, min, max = 0.009907931602 0.009907931602 0.009907931602
Phase-sum volume fraction, min, max = 1 1 1
MULES: Solving for alpha.steam
MULES: Solving for alpha.water
MULES: Correcting alpha.steam
MULES: Correcting alpha.water
steam fraction, min, max = 0.9900940575 0.9900940575 0.9900940575
water fraction, min, max = 0.009905942531 0.009905942531 0.009905942531
Phase-sum volume fraction, min, max = 1 1 1
MULES: Solving for alpha.steam
MULES: Solving for alpha.water
MULES: Correcting alpha.steam
MULES: Correcting alpha.water
steam fraction, min, max = 0.9900960461 0.9900960461 0.9900960461
water fraction, min, max = 0.009903953859 0.009903953859 0.009903953859
Phase-sum volume fraction, min, max = 1 1 1
Constructing momentum equations
diagonal:  Solving for e.steam, Initial residual = 0, Final residual = 0, No Iterations 0
diagonal:  Solving for h.water, Initial residual = 0, Final residual = 0, No Iterations 0
steam min/max T 392.0149623 - 392.0149623
water min/max T 374.9219749 - 374.9219749
heatTransferLimitedPhaseChange: phaseChange
    min/mean/max Tsat = 372.76/372.76/372.76
    min/mean/max mDot = -1.225420379/-1.225420379/-1.225420379
diagonal:  Solving for p_rgh, Initial residual = 0, Final residual = 0, No Iterations 0
PIMPLE: Iteration 4
heatTransferLimitedPhaseChange: phaseChange
    min/mean/max Tsat = 372.76/372.76/372.76
    min/mean/max mDot = -1.225420379/-1.225420379/-1.225420379
MULES: Solving for alpha.steam
MULES: Solving for alpha.water
MULES: Correcting alpha.steam
MULES: Correcting alpha.water
steam fraction, min, max = 0.9900920684 0.9900920684 0.9900920684
water fraction, min, max = 0.009907931601 0.009907931601 0.009907931601
Phase-sum volume fraction, min, max = 1 1 1
MULES: Solving for alpha.steam
MULES: Solving for alpha.water
MULES: Correcting alpha.steam
MULES: Correcting alpha.water
steam fraction, min, max = 0.9900940575 0.9900940575 0.9900940575
water fraction, min, max = 0.009905942528 0.009905942528 0.009905942528
Phase-sum volume fraction, min, max = 1 1 1
MULES: Solving for alpha.steam
MULES: Solving for alpha.water
MULES: Correcting alpha.steam
MULES: Correcting alpha.water
steam fraction, min, max = 0.9900960461 0.9900960461 0.9900960461
water fraction, min, max = 0.009903953855 0.009903953855 0.009903953855
Phase-sum volume fraction, min, max = 1 1 1
Constructing momentum equations
diagonal:  Solving for e.steam, Initial residual = 0, Final residual = 0, No Iterations 0
diagonal:  Solving for h.water, Initial residual = 0, Final residual = 0, No Iterations 0
steam min/max T 392.0149619 - 392.0149619
water min/max T 374.9219846 - 374.9219846
heatTransferLimitedPhaseChange: phaseChange
    min/mean/max Tsat = 372.76/372.76/372.76
    min/mean/max mDot = -1.225425674/-1.225425674/-1.225425674
diagonal:  Solving for p_rgh, Initial residual = 0, Final residual = 0, No Iterations 0
PIMPLE: Iteration 5
heatTransferLimitedPhaseChange: phaseChange
    min/mean/max Tsat = 372.76/372.76/372.76
    min/mean/max mDot = -1.225425674/-1.225425674/-1.225425674
MULES: Solving for alpha.steam
MULES: Solving for alpha.water
MULES: Correcting alpha.steam
MULES: Correcting alpha.water
steam fraction, min, max = 0.9900920684 0.9900920684 0.9900920684
water fraction, min, max = 0.009907931592 0.009907931592 0.009907931592
Phase-sum volume fraction, min, max = 1 1 1
MULES: Solving for alpha.steam
MULES: Solving for alpha.water
MULES: Correcting alpha.steam
MULES: Correcting alpha.water
steam fraction, min, max = 0.9900940575 0.9900940575 0.9900940575
water fraction, min, max = 0.009905942511 0.009905942511 0.009905942511
Phase-sum volume fraction, min, max = 1 1 1
MULES: Solving for alpha.steam
MULES: Solving for alpha.water
MULES: Correcting alpha.steam
MULES: Correcting alpha.water
steam fraction, min, max = 0.9900960462 0.9900960462 0.9900960462
water fraction, min, max = 0.009903953829 0.009903953829 0.009903953829
Phase-sum volume fraction, min, max = 1 1 1
Constructing momentum equations
diagonal:  Solving for e.steam, Initial residual = 0, Final residual = 0, No Iterations 0
diagonal:  Solving for h.water, Initial residual = 0, Final residual = 0, No Iterations 0
steam min/max T 392.0149656 - 392.0149656
water min/max T 374.9219847 - 374.9219847
heatTransferLimitedPhaseChange: phaseChange
    min/mean/max Tsat = 372.76/372.76/372.76
    min/mean/max mDot = -1.225425689/-1.225425689/-1.225425689
diagonal:  Solving for p_rgh, Initial residual = 0, Final residual = 0, No Iterations 0
ExecutionTime = 0.291586 s  ClockTime = 0 s

Courant Number mean: 0 max: 0
Time = 0.05s

PIMPLE: Iteration 1
heatTransferLimitedPhaseChange: phaseChange
    min/mean/max Tsat = 372.76/372.76/372.76
    min/mean/max mDot = -1.225425689/-1.225425689/-1.225425689
MULES: Solving for alpha.steam
MULES: Solving for alpha.water
MULES: Correcting alpha.steam
MULES: Correcting alpha.water
steam fraction, min, max = 0.9900980345 0.9900980345 0.9900980345
water fraction, min, max = 0.009901965547 0.009901965547 0.009901965547
Phase-sum volume fraction, min, max = 1 1 1
MULES: Solving for alpha.steam
MULES: Solving for alpha.water
MULES: Correcting alpha.steam
MULES: Correcting alpha.water
steam fraction, min, max = 0.9901000223 0.9901000223 0.9901000223
water fraction, min, max = 0.009899977664 0.009899977664 0.009899977664
Phase-sum volume fraction, min, max = 1 1 1
MULES: Solving for alpha.steam
MULES: Solving for alpha.water
MULES: Correcting alpha.steam
MULES: Correcting alpha.water
steam fraction, min, max = 0.9901020098 0.9901020098 0.9901020098
water fraction, min, max = 0.009897990179 0.009897990179 0.009897990179
Phase-sum volume fraction, min, max = 1 1 1
Constructing momentum equations
diagonal:  Solving for e.steam, Initial residual = 0, Final residual = 0, No Iterations 0
diagonal:  Solving for h.water, Initial residual = 0, Final residual = 0, No Iterations 0
steam min/max T 391.3594714 - 391.3594714
water min/max T 374.6499554 - 374.6499554
heatTransferLimitedPhaseChange: phaseChange
    min/mean/max Tsat = 372.76/372.76/372.76
    min/mean/max mDot = -1.074731974/-1.074731974/-1.074731974
diagonal:  Solving for p_rgh, Initial residual = 0, Final residual = 0, No Iterations 0
PIMPLE: Iteration 2
heatTransferLimitedPhaseChange: phaseChange
    min/mean/max Tsat = 372.76/372.76/372.76
    min/mean/max mDot = -1.074732334/-1.074732334/-1.074732334
MULES: Solving for alpha.steam
MULES: Solving for alpha.water
MULES: Correcting alpha.steam
MULES: Correcting alpha.water
steam fraction, min, max = 0.990097791 0.990097791 0.990097791
water fraction, min, max = 0.009902208958 0.009902208958 0.009902208958
Phase-sum volume fraction, min, max = 1 1 1
MULES: Solving for alpha.steam
MULES: Solving for alpha.water
MULES: Correcting alpha.steam
MULES: Correcting alpha.water
steam fraction, min, max = 0.9900995356 0.9900995356 0.9900995356
water fraction, min, max = 0.009900464393 0.009900464393 0.009900464393
Phase-sum volume fraction, min, max = 1 1 1
MULES: Solving for alpha.steam
MULES: Solving for alpha.water
MULES: Correcting alpha.steam
MULES: Correcting alpha.water
steam fraction, min, max = 0.9901012799 0.9901012799 0.9901012799
water fraction, min, max = 0.009898720136 0.009898720136 0.009898720136
Phase-sum volume fraction, min, max = 1 1 1
Constructing momentum equations
diagonal:  Solving for e.steam, Initial residual = 0, Final residual = 0, No Iterations 0
diagonal:  Solving for h.water, Initial residual = 0, Final residual = 0, No Iterations 0
steam min/max T 392.2576078 - 392.2576078
water min/max T 374.6497205 - 374.6497205
heatTransferLimitedPhaseChange: phaseChange
    min/mean/max Tsat = 372.76/372.76/372.76
    min/mean/max mDot = -1.076787132/-1.076787132/-1.076787132
diagonal:  Solving for p_rgh, Initial residual = 0, Final residual = 0, No Iterations 0
[...]
heatTransferLimitedPhaseChange: phaseChange
    min/mean/max Tsat = 372.76/372.76/372.76
    min/mean/max mDot = -0.001124189705/-0.001124189705/-0.001124189705
diagonal:  Solving for p_rgh, Initial residual = 0, Final residual = 0, No Iterations 0
PIMPLE: Iteration 4
heatTransferLimitedPhaseChange: phaseChange
    min/mean/max Tsat = 372.76/372.76/372.76
    min/mean/max mDot = -0.001124189705/-0.001124189705/-0.001124189705
MULES: Solving for alpha.steam
MULES: Solving for alpha.water
MULES: Correcting alpha.steam
MULES: Correcting alpha.water
steam fraction, min, max = 0.990148495 0.990148495 0.990148495
water fraction, min, max = 0.00985150502 0.00985150502 0.00985150502
Phase-sum volume fraction, min, max = 1 1 1
MULES: Solving for alpha.steam
MULES: Solving for alpha.water
MULES: Correcting alpha.steam
MULES: Correcting alpha.water
steam fraction, min, max = 0.9901484968 0.9901484968 0.9901484968
water fraction, min, max = 0.009851503195 0.009851503195 0.009851503195
Phase-sum volume fraction, min, max = 1 1 1
MULES: Solving for alpha.steam
MULES: Solving for alpha.water
MULES: Correcting alpha.steam
MULES: Correcting alpha.water
steam fraction, min, max = 0.9901484986 0.9901484986 0.9901484986
water fraction, min, max = 0.009851501371 0.009851501371 0.009851501371
Phase-sum volume fraction, min, max = 1 1 1
Constructing momentum equations
diagonal:  Solving for e.steam, Initial residual = 0, Final residual = 0, No Iterations 0
diagonal:  Solving for h.water, Initial residual = 0, Final residual = 0, No Iterations 0
steam min/max T 373.2422523 - 373.2422523
water min/max T 372.76 - 372.76
heatTransferLimitedPhaseChange: phaseChange
    min/mean/max Tsat = 372.76/372.76/372.76
    min/mean/max mDot = -0.001124193986/-0.001124193986/-0.001124193986
diagonal:  Solving for p_rgh, Initial residual = 0, Final residual = 0, No Iterations 0
PIMPLE: Iteration 5
heatTransferLimitedPhaseChange: phaseChange
    min/mean/max Tsat = 372.76/372.76/372.76
    min/mean/max mDot = -0.001124193986/-0.001124193986/-0.001124193986
MULES: Solving for alpha.steam
MULES: Solving for alpha.water
MULES: Correcting alpha.steam
MULES: Correcting alpha.water
steam fraction, min, max = 0.990148495 0.990148495 0.990148495
water fraction, min, max = 0.00985150502 0.00985150502 0.00985150502
Phase-sum volume fraction, min, max = 1 1 1
MULES: Solving for alpha.steam
MULES: Solving for alpha.water
MULES: Correcting alpha.steam
MULES: Correcting alpha.water
steam fraction, min, max = 0.9901484968 0.9901484968 0.9901484968
water fraction, min, max = 0.009851503195 0.009851503195 0.009851503195
Phase-sum volume fraction, min, max = 1 1 1
MULES: Solving for alpha.steam
MULES: Solving for alpha.water
MULES: Correcting alpha.steam
MULES: Correcting alpha.water
steam fraction, min, max = 0.9901484986 0.9901484986 0.9901484986
water fraction, min, max = 0.009851501371 0.009851501371 0.009851501371
Phase-sum volume fraction, min, max = 1 1 1
Constructing momentum equations
diagonal:  Solving for e.steam, Initial residual = 0, Final residual = 0, No Iterations 0
diagonal:  Solving for h.water, Initial residual = 0, Final residual = 0, No Iterations 0
steam min/max T 373.2422523 - 373.2422523
water min/max T 372.76 - 372.76
heatTransferLimitedPhaseChange: phaseChange
    min/mean/max Tsat = 372.76/372.76/372.76
    min/mean/max mDot = -0.001124194001/-0.001124194001/-0.001124194001
diagonal:  Solving for p_rgh, Initial residual = 0, Final residual = 0, No Iterations 0
ExecutionTime = 3.235523 s  ClockTime = 3 s

Courant Number mean: 0 max: 0
Time = 0.995s

PIMPLE: Iteration 1
heatTransferLimitedPhaseChange: phaseChange
    min/mean/max Tsat = 372.76/372.76/372.76
    min/mean/max mDot = -0.001124194001/-0.001124194001/-0.001124194001
MULES: Solving for alpha.steam
MULES: Solving for alpha.water
MULES: Correcting alpha.steam
MULES: Correcting alpha.water
steam fraction, min, max = 0.9901485005 0.9901485005 0.9901485005
water fraction, min, max = 0.009851499547 0.009851499547 0.009851499547
Phase-sum volume fraction, min, max = 1 1 1
MULES: Solving for alpha.steam
MULES: Solving for alpha.water
MULES: Correcting alpha.steam
MULES: Correcting alpha.water
steam fraction, min, max = 0.9901485023 0.9901485023 0.9901485023
water fraction, min, max = 0.009851497722 0.009851497722 0.009851497722
Phase-sum volume fraction, min, max = 1 1 1
MULES: Solving for alpha.steam
MULES: Solving for alpha.water
MULES: Correcting alpha.steam
MULES: Correcting alpha.water
steam fraction, min, max = 0.9901485041 0.9901485041 0.9901485041
water fraction, min, max = 0.009851495898 0.009851495898 0.009851495898
Phase-sum volume fraction, min, max = 1 1 1
Constructing momentum equations
diagonal:  Solving for e.steam, Initial residual = 0, Final residual = 0, No Iterations 0
diagonal:  Solving for h.water, Initial residual = 0, Final residual = 0, No Iterations 0
steam min/max T 373.2315448 - 373.2315448
water min/max T 372.7599995 - 372.7599995
heatTransferLimitedPhaseChange: phaseChange
    min/mean/max Tsat = 372.76/372.76/372.76
    min/mean/max mDot = -0.001098967875/-0.001098967875/-0.001098967875
diagonal:  Solving for p_rgh, Initial residual = 0, Final residual = 0, No Iterations 0
PIMPLE: Iteration 2
heatTransferLimitedPhaseChange: phaseChange
    min/mean/max Tsat = 372.76/372.76/372.76
    min/mean/max mDot = -0.001098967873/-0.001098967873/-0.001098967873
MULES: Solving for alpha.steam
MULES: Solving for alpha.water
MULES: Correcting alpha.steam
MULES: Correcting alpha.water
steam fraction, min, max = 0.9901485004 0.9901485004 0.9901485004
water fraction, min, max = 0.009851499588 0.009851499588 0.009851499588
Phase-sum volume fraction, min, max = 1 1 1
MULES: Solving for alpha.steam
MULES: Solving for alpha.water
MULES: Correcting alpha.steam
MULES: Correcting alpha.water
steam fraction, min, max = 0.9901485022 0.9901485022 0.9901485022
water fraction, min, max = 0.009851497804 0.009851497804 0.009851497804
Phase-sum volume fraction, min, max = 1 1 1
MULES: Solving for alpha.steam
MULES: Solving for alpha.water
MULES: Correcting alpha.steam
MULES: Correcting alpha.water
steam fraction, min, max = 0.990148504 0.990148504 0.990148504
water fraction, min, max = 0.009851496021 0.009851496021 0.009851496021
Phase-sum volume fraction, min, max = 1 1 1
Constructing momentum equations
diagonal:  Solving for e.steam, Initial residual = 0, Final residual = 0, No Iterations 0
diagonal:  Solving for h.water, Initial residual = 0, Final residual = 0, No Iterations 0
steam min/max T 373.2323427 - 373.2323427
water min/max T 372.7600001 - 372.7600001
heatTransferLimitedPhaseChange: phaseChange
    min/mean/max Tsat = 372.76/372.76/372.76
    min/mean/max mDot = -0.001101134471/-0.001101134471/-0.001101134471
diagonal:  Solving for p_rgh, Initial residual = 0, Final residual = 0, No Iterations 0
PIMPLE: Iteration 3
heatTransferLimitedPhaseChange: phaseChange
    min/mean/max Tsat = 372.76/372.76/372.76
    min/mean/max mDot = -0.001101134471/-0.001101134471/-0.001101134471
MULES: Solving for alpha.steam
MULES: Solving for alpha.water
MULES: Correcting alpha.steam
MULES: Correcting alpha.water
steam fraction, min, max = 0.9901485004 0.9901485004 0.9901485004
water fraction, min, max = 0.009851499584 0.009851499584 0.009851499584
Phase-sum volume fraction, min, max = 1 1 1
MULES: Solving for alpha.steam
MULES: Solving for alpha.water
MULES: Correcting alpha.steam
MULES: Correcting alpha.water
steam fraction, min, max = 0.9901485022 0.9901485022 0.9901485022
water fraction, min, max = 0.009851497797 0.009851497797 0.009851497797
Phase-sum volume fraction, min, max = 1 1 1
MULES: Solving for alpha.steam
MULES: Solving for alpha.water
MULES: Correcting alpha.steam
MULES: Correcting alpha.water
steam fraction, min, max = 0.990148504 0.990148504 0.990148504
water fraction, min, max = 0.00985149601 0.00985149601 0.00985149601
Phase-sum volume fraction, min, max = 1 1 1
Constructing momentum equations
diagonal:  Solving for e.steam, Initial residual = 0, Final residual = 0, No Iterations 0
diagonal:  Solving for h.water, Initial residual = 0, Final residual = 0, No Iterations 0
steam min/max T 373.2323442 - 373.2323442
water min/max T 372.76 - 372.76
heatTransferLimitedPhaseChange: phaseChange
    min/mean/max Tsat = 372.76/372.76/372.76
    min/mean/max mDot = -0.00110109212/-0.00110109212/-0.00110109212
diagonal:  Solving for p_rgh, Initial residual = 0, Final residual = 0, No Iterations 0
PIMPLE: Iteration 4
heatTransferLimitedPhaseChange: phaseChange
    min/mean/max Tsat = 372.76/372.76/372.76
    min/mean/max mDot = -0.00110109212/-0.00110109212/-0.00110109212
MULES: Solving for alpha.steam
MULES: Solving for alpha.water
MULES: Correcting alpha.steam
MULES: Correcting alpha.water
steam fraction, min, max = 0.9901485004 0.9901485004 0.9901485004
water fraction, min, max = 0.009851499584 0.009851499584 0.009851499584
Phase-sum volume fraction, min, max = 1 1 1
MULES: Solving for alpha.steam
MULES: Solving for alpha.water
MULES: Correcting alpha.steam
MULES: Correcting alpha.water
steam fraction, min, max = 0.9901485022 0.9901485022 0.9901485022
water fraction, min, max = 0.009851497797 0.009851497797 0.009851497797
Phase-sum volume fraction, min, max = 1 1 1
MULES: Solving for alpha.steam
MULES: Solving for alpha.water
MULES: Correcting alpha.steam
MULES: Correcting alpha.water
steam fraction, min, max = 0.990148504 0.990148504 0.990148504
water fraction, min, max = 0.00985149601 0.00985149601 0.00985149601
Phase-sum volume fraction, min, max = 1 1 1
Constructing momentum equations
diagonal:  Solving for e.steam, Initial residual = 0, Final residual = 0, No Iterations 0
diagonal:  Solving for h.water, Initial residual = 0, Final residual = 0, No Iterations 0
steam min/max T 373.2323442 - 373.2323442
water min/max T 372.76 - 372.76
heatTransferLimitedPhaseChange: phaseChange
    min/mean/max Tsat = 372.76/372.76/372.76
    min/mean/max mDot = -0.001101096313/-0.001101096313/-0.001101096313
diagonal:  Solving for p_rgh, Initial residual = 0, Final residual = 0, No Iterations 0
PIMPLE: Iteration 5
heatTransferLimitedPhaseChange: phaseChange
    min/mean/max Tsat = 372.76/372.76/372.76
    min/mean/max mDot = -0.001101096313/-0.001101096313/-0.001101096313
MULES: Solving for alpha.steam
MULES: Solving for alpha.water
MULES: Correcting alpha.steam
MULES: Correcting alpha.water
steam fraction, min, max = 0.9901485004 0.9901485004 0.9901485004
water fraction, min, max = 0.009851499584 0.009851499584 0.009851499584
Phase-sum volume fraction, min, max = 1 1 1
MULES: Solving for alpha.steam
MULES: Solving for alpha.water
MULES: Correcting alpha.steam
MULES: Correcting alpha.water
steam fraction, min, max = 0.9901485022 0.9901485022 0.9901485022
water fraction, min, max = 0.009851497797 0.009851497797 0.009851497797
Phase-sum volume fraction, min, max = 1 1 1
MULES: Solving for alpha.steam
MULES: Solving for alpha.water
MULES: Correcting alpha.steam
MULES: Correcting alpha.water
steam fraction, min, max = 0.990148504 0.990148504 0.990148504
water fraction, min, max = 0.00985149601 0.00985149601 0.00985149601
Phase-sum volume fraction, min, max = 1 1 1
Constructing momentum equations
diagonal:  Solving for e.steam, Initial residual = 0, Final residual = 0, No Iterations 0
diagonal:  Solving for h.water, Initial residual = 0, Final residual = 0, No Iterations 0
steam min/max T 373.2323442 - 373.2323442
water min/max T 372.76 - 372.76
heatTransferLimitedPhaseChange: phaseChange
    min/mean/max Tsat = 372.76/372.76/372.76
    min/mean/max mDot = -0.001101096328/-0.001101096328/-0.001101096328
diagonal:  Solving for p_rgh, Initial residual = 0, Final residual = 0, No Iterations 0
ExecutionTime = 3.250991 s  ClockTime = 3 s

Courant Number mean: 0 max: 0
Time = 1s

PIMPLE: Iteration 1
heatTransferLimitedPhaseChange: phaseChange
    min/mean/max Tsat = 372.76/372.76/372.76
    min/mean/max mDot = -0.001101096328/-0.001101096328/-0.001101096328
MULES: Solving for alpha.steam
MULES: Solving for alpha.water
MULES: Correcting alpha.steam
MULES: Correcting alpha.water
steam fraction, min, max = 0.9901485058 0.9901485058 0.9901485058
water fraction, min, max = 0.009851494223 0.009851494223 0.009851494223
Phase-sum volume fraction, min, max = 1 1 1
MULES: Solving for alpha.steam
MULES: Solving for alpha.water
MULES: Correcting alpha.steam
MULES: Correcting alpha.water
steam fraction, min, max = 0.9901485076 0.9901485076 0.9901485076
water fraction, min, max = 0.009851492436 0.009851492436 0.009851492436
Phase-sum volume fraction, min, max = 1 1 1
MULES: Solving for alpha.steam
MULES: Solving for alpha.water
MULES: Correcting alpha.steam
MULES: Correcting alpha.water
steam fraction, min, max = 0.9901485094 0.9901485094 0.9901485094
water fraction, min, max = 0.00985149065 0.00985149065 0.00985149065
Phase-sum volume fraction, min, max = 1 1 1
Constructing momentum equations
diagonal:  Solving for e.steam, Initial residual = 0, Final residual = 0, No Iterations 0
diagonal:  Solving for h.water, Initial residual = 0, Final residual = 0, No Iterations 0
steam min/max T 373.2218568 - 373.2218568
water min/max T 372.7599995 - 372.7599995
heatTransferLimitedPhaseChange: phaseChange
    min/mean/max Tsat = 372.76/372.76/372.76
    min/mean/max mDot = -0.001076388927/-0.001076388927/-0.001076388927
diagonal:  Solving for p_rgh, Initial residual = 0, Final residual = 0, No Iterations 0
PIMPLE: Iteration 2
heatTransferLimitedPhaseChange: phaseChange
    min/mean/max Tsat = 372.76/372.76/372.76
    min/mean/max mDot = -0.001076388925/-0.001076388925/-0.001076388925
MULES: Solving for alpha.steam
MULES: Solving for alpha.water
MULES: Correcting alpha.steam
MULES: Correcting alpha.water
steam fraction, min, max = 0.9901485057 0.9901485057 0.9901485057
water fraction, min, max = 0.009851494264 0.009851494264 0.009851494264
Phase-sum volume fraction, min, max = 1 1 1
MULES: Solving for alpha.steam
MULES: Solving for alpha.water
MULES: Correcting alpha.steam
MULES: Correcting alpha.water
steam fraction, min, max = 0.9901485075 0.9901485075 0.9901485075
water fraction, min, max = 0.009851492517 0.009851492517 0.009851492517
Phase-sum volume fraction, min, max = 1 1 1
MULES: Solving for alpha.steam
MULES: Solving for alpha.water
MULES: Correcting alpha.steam
MULES: Correcting alpha.water
steam fraction, min, max = 0.9901485092 0.9901485092 0.9901485092
water fraction, min, max = 0.00985149077 0.00985149077 0.00985149077
Phase-sum volume fraction, min, max = 1 1 1
Constructing momentum equations
diagonal:  Solving for e.steam, Initial residual = 0, Final residual = 0, No Iterations 0
diagonal:  Solving for h.water, Initial residual = 0, Final residual = 0, No Iterations 0
steam min/max T 373.2226383 - 373.2226383
water min/max T 372.7600001 - 372.7600001
heatTransferLimitedPhaseChange: phaseChange
    min/mean/max Tsat = 372.76/372.76/372.76
    min/mean/max mDot = -0.001078510939/-0.001078510939/-0.001078510939
diagonal:  Solving for p_rgh, Initial residual = 0, Final residual = 0, No Iterations 0
PIMPLE: Iteration 3
heatTransferLimitedPhaseChange: phaseChange
    min/mean/max Tsat = 372.76/372.76/372.76
    min/mean/max mDot = -0.00107851094/-0.00107851094/-0.00107851094
MULES: Solving for alpha.steam
MULES: Solving for alpha.water
MULES: Correcting alpha.steam
MULES: Correcting alpha.water
steam fraction, min, max = 0.9901485057 0.9901485057 0.9901485057
water fraction, min, max = 0.00985149426 0.00985149426 0.00985149426
Phase-sum volume fraction, min, max = 1 1 1
MULES: Solving for alpha.steam
MULES: Solving for alpha.water
MULES: Correcting alpha.steam
MULES: Correcting alpha.water
steam fraction, min, max = 0.9901485075 0.9901485075 0.9901485075
water fraction, min, max = 0.00985149251 0.00985149251 0.00985149251
Phase-sum volume fraction, min, max = 1 1 1
MULES: Solving for alpha.steam
MULES: Solving for alpha.water
MULES: Correcting alpha.steam
MULES: Correcting alpha.water
steam fraction, min, max = 0.9901485092 0.9901485092 0.9901485092
water fraction, min, max = 0.00985149076 0.00985149076 0.00985149076
Phase-sum volume fraction, min, max = 1 1 1
Constructing momentum equations
diagonal:  Solving for e.steam, Initial residual = 0, Final residual = 0, No Iterations 0
diagonal:  Solving for h.water, Initial residual = 0, Final residual = 0, No Iterations 0
steam min/max T 373.2226399 - 373.2226399
water min/max T 372.76 - 372.76
heatTransferLimitedPhaseChange: phaseChange
    min/mean/max Tsat = 372.76/372.76/372.76
    min/mean/max mDot = -0.001078469459/-0.001078469459/-0.001078469459
diagonal:  Solving for p_rgh, Initial residual = 0, Final residual = 0, No Iterations 0
PIMPLE: Iteration 4
heatTransferLimitedPhaseChange: phaseChange
    min/mean/max Tsat = 372.76/372.76/372.76
    min/mean/max mDot = -0.001078469459/-0.001078469459/-0.001078469459
MULES: Solving for alpha.steam
MULES: Solving for alpha.water
MULES: Correcting alpha.steam
MULES: Correcting alpha.water
steam fraction, min, max = 0.9901485057 0.9901485057 0.9901485057
water fraction, min, max = 0.00985149426 0.00985149426 0.00985149426
Phase-sum volume fraction, min, max = 1 1 1
MULES: Solving for alpha.steam
MULES: Solving for alpha.water
MULES: Correcting alpha.steam
MULES: Correcting alpha.water
steam fraction, min, max = 0.9901485075 0.9901485075 0.9901485075
water fraction, min, max = 0.00985149251 0.00985149251 0.00985149251
Phase-sum volume fraction, min, max = 1 1 1
MULES: Solving for alpha.steam
MULES: Solving for alpha.water
MULES: Correcting alpha.steam
MULES: Correcting alpha.water
steam fraction, min, max = 0.9901485092 0.9901485092 0.9901485092
water fraction, min, max = 0.00985149076 0.00985149076 0.00985149076
Phase-sum volume fraction, min, max = 1 1 1
Constructing momentum equations
diagonal:  Solving for e.steam, Initial residual = 0, Final residual = 0, No Iterations 0
diagonal:  Solving for h.water, Initial residual = 0, Final residual = 0, No Iterations 0
steam min/max T 373.2226398 - 373.2226398
water min/max T 372.76 - 372.76
heatTransferLimitedPhaseChange: phaseChange
    min/mean/max Tsat = 372.76/372.76/372.76
    min/mean/max mDot = -0.001078473565/-0.001078473565/-0.001078473565
diagonal:  Solving for p_rgh, Initial residual = 0, Final residual = 0, No Iterations 0
PIMPLE: Iteration 5
heatTransferLimitedPhaseChange: phaseChange
    min/mean/max Tsat = 372.76/372.76/372.76
    min/mean/max mDot = -0.001078473565/-0.001078473565/-0.001078473565
MULES: Solving for alpha.steam
MULES: Solving for alpha.water
MULES: Correcting alpha.steam
MULES: Correcting alpha.water
steam fraction, min, max = 0.9901485057 0.9901485057 0.9901485057
water fraction, min, max = 0.00985149426 0.00985149426 0.00985149426
Phase-sum volume fraction, min, max = 1 1 1
MULES: Solving for alpha.steam
MULES: Solving for alpha.water
MULES: Correcting alpha.steam
MULES: Correcting alpha.water
steam fraction, min, max = 0.9901485075 0.9901485075 0.9901485075
water fraction, min, max = 0.00985149251 0.00985149251 0.00985149251
Phase-sum volume fraction, min, max = 1 1 1
MULES: Solving for alpha.steam
MULES: Solving for alpha.water
MULES: Correcting alpha.steam
MULES: Correcting alpha.water
steam fraction, min, max = 0.9901485092 0.9901485092 0.9901485092
water fraction, min, max = 0.00985149076 0.00985149076 0.00985149076
Phase-sum volume fraction, min, max = 1 1 1
Constructing momentum equations
diagonal:  Solving for e.steam, Initial residual = 0, Final residual = 0, No Iterations 0
diagonal:  Solving for h.water, Initial residual = 0, Final residual = 0, No Iterations 0
steam min/max T 373.2226398 - 373.2226398
water min/max T 372.76 - 372.76
heatTransferLimitedPhaseChange: phaseChange
    min/mean/max Tsat = 372.76/372.76/372.76
    min/mean/max mDot = -0.00107847358/-0.00107847358/-0.00107847358
diagonal:  Solving for p_rgh, Initial residual = 0, Final residual = 0, No Iterations 0
ExecutionTime = 3.268262 s  ClockTime = 3 s

End

