/*---------------------------------------------------------------------------*\
  =========                 |
  \\      /  F ield         | OpenFOAM: The Open Source CFD Toolbox
   \\    /   O peration     | Website:  https://openfoam.org
    \\  /    A nd           | Version:  13
     \\/     M anipulation  |
\*---------------------------------------------------------------------------*/
Build  : 13-19a3d5400c8c
Exec   : zeroDimensionalMesh
Date   : Jun 23 2026
Time   : 14:25:26
Host   : "kol-serv"
PID    : 1365414
I/O    : uncollated
Case   : /home/kol/OpenFOAM/OpenFOAM-13/test/multiphaseEuler/heatTransferLimitedPhaseChange/waterEvaporation
nProcs : 1
sigFpe : Enabling floating point exception trapping (FOAM_SIGFPE).
fileModificationChecking : Monitoring run-time modified files using timeStampMaster (fileModificationSkew 10)
allowSystemOperations : Allowing user-supplied system call operations

// * * * * * * * * * * * * * * * * * * * * * * * * * * * * * * * * * * * * * //
Create time

End

