/*---------------------------------------------------------------------------*\
  =========                 |
  \\      /  F ield         | OpenFOAM: The Open Source CFD Toolbox
   \\    /   O peration     | Website:  https://openfoam.org
    \\  /    A nd           | Version:  13
     \\/     M anipulation  |
\*---------------------------------------------------------------------------*/
Build  : 13-19a3d5400c8c
Exec   : foamRun
Date   : Jun 23 2026
Time   : 14:25:26
Host   : "kol-serv"
PID    : 1365419
I/O    : uncollated
Case   : /home/kol/OpenFOAM/OpenFOAM-13/test/multiphaseEuler/heatTransferLimitedPhaseChange/waterEvaporation
nProcs : 1
sigFpe : Enabling floating point exception trapping (FOAM_SIGFPE).
fileModificationChecking : Monitoring run-time modified files using timeStampMaster (fileModificationSkew 10)
allowSystemOperations : Allowing user-supplied system call operations

// * * * * * * * * * * * * * * * * * * * * * * * * * * * * * * * * * * * * * //
Create time

Create mesh for time = 0

Selecting solver multiphaseEuler
No MRF models present

Selecting phaseModel for steam: purePhaseModel
Selecting diameterModel for phase steam: none
Selecting thermodynamics package 
{
    type            heRhoThermo;
    mixture         pureMixture;
    transport       const;
    thermo          eConst;
    equationOfState perfectGas;
    specie          specie;
    energy          sensibleInternalEnergy;
}

Calculating face flux field phi.steam
Selecting turbulence model type laminar
    Selecting laminar stress model Stokes
Selecting thermophysical transport type laminar
Selecting default laminar thermophysical transport model unityLewisFourier
Selecting phaseModel for water: purePhaseModel
Selecting diameterModel for phase water: constant
Selecting thermodynamics package 
{
    type            heRhoThermo;
    mixture         pureMixture;
    transport       const;
    thermo          eConst;
    equationOfState rhoConst;
    specie          specie;
    energy          sensibleInternalEnergy;
}

Calculating face flux field phi.water
Selecting turbulence model type laminar
    Selecting laminar stress model Stokes
Selecting thermophysical transport type laminar
Selecting default laminar thermophysical transport model unityLewisFourier
Selecting surfaceTensionCoefficientModel for steam_water: constant
Selecting SidedInterfacialModel<heatTransferModel> blending method for steam_water: continuous
Selecting heatTransferModel for water_dispersedIn_steam_inThe_steam: RanzMarshall
Selecting heatTransferModel for water_dispersedIn_steam_inThe_water: spherical
Courant Number mean: 0 max: 0
Creating fvModels from "constant/fvModels"

Selecting finite volume model type heatTransferLimitedPhaseChange
    Name: phaseChange
Selecting saturationTemperatureModel constant

PIMPLE: No convergence criteria found


PIMPLE: No corrector convergence criteria found
        Calculations will do 5 corrections


PIMPLE: Operating solver in transient mode with 5 outer correctors



Starting time loop

Using dynamicCode for coded continuity at line 2 in "/home/kol/OpenFOAM/OpenFOAM-13/test/multiphaseEuler/heatTransferLimitedPhaseChange/waterEvaporation/system/functions/continuity"
Creating new library in "dynamicCode/continuity/platforms/linux64GccDPInt64Opt/lib/libcontinuity_352b58499209f8be8bacacc8301c3d21c343b3e8.so"
"/home/kol/OpenFOAM/OpenFOAM-13/etc/codeTemplates/dynamicCode/codedFunctionObjectTemplate.C" "/home/kol/OpenFOAM/OpenFOAM-13/test/multiphaseEuler/heatTransferLimitedPhaseChange/waterEvaporation/dynamicCode/continuity/codedFunctionObjectTemplate.C"
"/home/kol/OpenFOAM/OpenFOAM-13/etc/codeTemplates/dynamicCode/codedFunctionObjectTemplate.H" "/home/kol/OpenFOAM/OpenFOAM-13/test/multiphaseEuler/heatTransferLimitedPhaseChange/waterEvaporation/dynamicCode/continuity/codedFunctionObjectTemplate.H"
Invoking "wmake -s libso /home/kol/OpenFOAM/OpenFOAM-13/test/multiphaseEuler/heatTransferLimitedPhaseChange/waterEvaporation/dynamicCode/continuity"
wmake libso /home/kol/OpenFOAM/OpenFOAM-13/test/multiphaseEuler/heatTransferLimitedPhaseChange/waterEvaporation/dynamicCode/continuity
make[3]: Entering directory '/home/kol/OpenFOAM/OpenFOAM-13/test/multiphaseEuler/heatTransferLimitedPhaseChange/waterEvaporation/dynamicCode/continuity'
    ln: ./lnInclude
make[3]: Leaving directory '/home/kol/OpenFOAM/OpenFOAM-13/test/multiphaseEuler/heatTransferLimitedPhaseChange/waterEvaporation/dynamicCode/continuity'
make[3]: Entering directory '/home/kol/OpenFOAM/OpenFOAM-13/test/multiphaseEuler/heatTransferLimitedPhaseChange/waterEvaporation/dynamicCode/continuity'
    wmkdep: codedFunctionObjectTemplate.C
    Ctoo: codedFunctionObjectTemplate.C
In file included from /home/kol/OpenFOAM/OpenFOAM-13/src/finiteVolume/lnInclude/fvPatchField.H:592,
                 from /home/kol/OpenFOAM/OpenFOAM-13/src/finiteVolume/lnInclude/volFields.H:41,
                 from /home/kol/OpenFOAM/OpenFOAM-13/src/thermophysicalModels/basic/lnInclude/BasicThermo.H:40,
                 from /home/kol/OpenFOAM/OpenFOAM-13/src/thermophysicalModels/basic/lnInclude/RhoFluidThermo.H:38,
                 from /home/kol/OpenFOAM/OpenFOAM-13/src/thermophysicalModels/basic/lnInclude/rhoFluidThermo.H:41,
                 from /home/kol/OpenFOAM/OpenFOAM-13/test/multiphaseEuler/heatTransferLimitedPhaseChange/waterEvaporation/system/functions/continuity:15,
                 from codedFunctionObjectTemplate.C:26:
/home/kol/OpenFOAM/OpenFOAM-13/src/finiteVolume/lnInclude/fixedGradientFvPatchField.H: In instantiation of ‘class Foam::fixedGradientFvPatchField<double>’:
/home/kol/OpenFOAM/OpenFOAM-13/src/thermophysicalModels/basic/lnInclude/gradientEnergyFvPatchScalarField.H:66:12:   required from here
   66 |     public fixedGradientFvPatchScalarField
      |            ^~~~~~~~~~~~~~~~~~~~~~~~~~~~~~~
/home/kol/OpenFOAM/OpenFOAM-13/src/finiteVolume/lnInclude/fvPatchField.C:266:6: warning: ‘void Foam::fvPatchField<Type>::operator=(const Foam::fvPatchField<Type>&) [with Type = double]’ was hidden [-Woverloaded-virtual=]
  266 | void Foam::fvPatchField<Type>::operator=
      |      ^~~~
In file included from /home/kol/OpenFOAM/OpenFOAM-13/src/finiteVolume/lnInclude/fixedGradientFvPatchFields.H:29,
                 from /home/kol/OpenFOAM/OpenFOAM-13/src/thermophysicalModels/basic/lnInclude/gradientEnergyFvPatchScalarField.H:53,
                 from /home/kol/OpenFOAM/OpenFOAM-13/src/thermophysicalModels/basic/lnInclude/BasicThermo.C:27,
                 from /home/kol/OpenFOAM/OpenFOAM-13/src/thermophysicalModels/basic/lnInclude/BasicThermo.H:451:
/home/kol/OpenFOAM/OpenFOAM-13/src/finiteVolume/lnInclude/fixedGradientFvPatchField.H:78:7: note:   by ‘Foam::fixedGradientFvPatchField<double>& Foam::fixedGradientFvPatchField<double>::operator=(const Foam::fixedGradientFvPatchField<double>&)’
   78 | class fixedGradientFvPatchField
      |       ^~~~~~~~~~~~~~~~~~~~~~~~~
/home/kol/OpenFOAM/OpenFOAM-13/src/finiteVolume/lnInclude/fvPatchField.H:565:22: warning: ‘void Foam::fvPatchField<Type>::operator=(const Type&) [with Type = double]’ was hidden [-Woverloaded-virtual=]
  565 |         virtual void operator=(const Type&);
      |                      ^~~~~~~~
/home/kol/OpenFOAM/OpenFOAM-13/src/finiteVolume/lnInclude/fixedGradientFvPatchField.H:78:7: note:   by ‘Foam::fixedGradientFvPatchField<double>& Foam::fixedGradientFvPatchField<double>::operator=(const Foam::fixedGradientFvPatchField<double>&)’
   78 | class fixedGradientFvPatchField
      |       ^~~~~~~~~~~~~~~~~~~~~~~~~
/home/kol/OpenFOAM/OpenFOAM-13/src/finiteVolume/lnInclude/fvPatchField.C:256:6: warning: ‘void Foam::fvPatchField<Type>::operator=(const Foam::UList<T>&) [with Type = double]’ was hidden [-Woverloaded-virtual=]
  256 | void Foam::fvPatchField<Type>::operator=
      |      ^~~~
/home/kol/OpenFOAM/OpenFOAM-13/src/finiteVolume/lnInclude/fixedGradientFvPatchField.H:78:7: note:   by ‘Foam::fixedGradientFvPatchField<double>& Foam::fixedGradientFvPatchField<double>::operator=(const Foam::fixedGradientFvPatchField<double>&)’
   78 | class fixedGradientFvPatchField
      |       ^~~~~~~~~~~~~~~~~~~~~~~~~
/home/kol/OpenFOAM/OpenFOAM-13/src/finiteVolume/lnInclude/fvPatchField.C:266:6: warning: ‘void Foam::fvPatchField<Type>::operator=(const Foam::fvPatchField<Type>&) [with Type = double]’ was hidden [-Woverloaded-virtual=]
  266 | void Foam::fvPatchField<Type>::operator=
      |      ^~~~
/home/kol/OpenFOAM/OpenFOAM-13/src/thermophysicalModels/basic/lnInclude/gradientEnergyFvPatchScalarField.H:64:7: note:   by ‘Foam::gradientEnergyFvPatchScalarField& Foam::gradientEnergyFvPatchScalarField::operator=(const Foam::gradientEnergyFvPatchScalarField&)’
   64 | class gradientEnergyFvPatchScalarField
      |       ^~~~~~~~~~~~~~~~~~~~~~~~~~~~~~~~
/home/kol/OpenFOAM/OpenFOAM-13/src/finiteVolume/lnInclude/fvPatchField.H:565:22: warning: ‘void Foam::fvPatchField<Type>::operator=(const Type&) [with Type = double]’ was hidden [-Woverloaded-virtual=]
  565 |         virtual void operator=(const Type&);
      |                      ^~~~~~~~
/home/kol/OpenFOAM/OpenFOAM-13/src/thermophysicalModels/basic/lnInclude/gradientEnergyFvPatchScalarField.H:64:7: note:   by ‘Foam::gradientEnergyFvPatchScalarField& Foam::gradientEnergyFvPatchScalarField::operator=(const Foam::gradientEnergyFvPatchScalarField&)’
   64 | class gradientEnergyFvPatchScalarField
      |       ^~~~~~~~~~~~~~~~~~~~~~~~~~~~~~~~
/home/kol/OpenFOAM/OpenFOAM-13/src/finiteVolume/lnInclude/fvPatchField.C:256:6: warning: ‘void Foam::fvPatchField<Type>::operator=(const Foam::UList<T>&) [with Type = double]’ was hidden [-Woverloaded-virtual=]
  256 | void Foam::fvPatchField<Type>::operator=
      |      ^~~~
/home/kol/OpenFOAM/OpenFOAM-13/src/thermophysicalModels/basic/lnInclude/gradientEnergyFvPatchScalarField.H:64:7: note:   by ‘Foam::gradientEnergyFvPatchScalarField& Foam::gradientEnergyFvPatchScalarField::operator=(const Foam::gradientEnergyFvPatchScalarField&)’
   64 | class gradientEnergyFvPatchScalarField
      |       ^~~~~~~~~~~~~~~~~~~~~~~~~~~~~~~~
In file included from /home/kol/OpenFOAM/OpenFOAM-13/src/finiteVolume/lnInclude/mixedFvPatchFields.H:29,
                 from /home/kol/OpenFOAM/OpenFOAM-13/src/thermophysicalModels/basic/lnInclude/mixedEnergyFvPatchScalarField.H:52,
                 from /home/kol/OpenFOAM/OpenFOAM-13/src/thermophysicalModels/basic/lnInclude/BasicThermo.C:28:
/home/kol/OpenFOAM/OpenFOAM-13/src/finiteVolume/lnInclude/mixedFvPatchField.H:259:22: warning: ‘void Foam::mixedFvPatchField<Type>::operator=(const Foam::fvPatchField<Type>&) [with Type = double]’ was hidden [-Woverloaded-virtual=]
  259 |         virtual void operator=(const fvPatchField<Type>&) {}
      |                      ^~~~~~~~
/home/kol/OpenFOAM/OpenFOAM-13/src/thermophysicalModels/basic/lnInclude/mixedEnergyFvPatchScalarField.H:63:7: note:   by ‘Foam::mixedEnergyFvPatchScalarField& Foam::mixedEnergyFvPatchScalarField::operator=(const Foam::mixedEnergyFvPatchScalarField&)’
   63 | class mixedEnergyFvPatchScalarField
      |       ^~~~~~~~~~~~~~~~~~~~~~~~~~~~~
/home/kol/OpenFOAM/OpenFOAM-13/src/finiteVolume/lnInclude/mixedFvPatchField.H:271:22: warning: ‘void Foam::mixedFvPatchField<Type>::operator=(const Type&) [with Type = double]’ was hidden [-Woverloaded-virtual=]
  271 |         virtual void operator=(const Type&) {}
      |                      ^~~~~~~~
/home/kol/OpenFOAM/OpenFOAM-13/src/thermophysicalModels/basic/lnInclude/mixedEnergyFvPatchScalarField.H:63:7: note:   by ‘Foam::mixedEnergyFvPatchScalarField& Foam::mixedEnergyFvPatchScalarField::operator=(const Foam::mixedEnergyFvPatchScalarField&)’
   63 | class mixedEnergyFvPatchScalarField
      |       ^~~~~~~~~~~~~~~~~~~~~~~~~~~~~
/home/kol/OpenFOAM/OpenFOAM-13/src/finiteVolume/lnInclude/mixedFvPatchField.H:257:22: warning: ‘void Foam::mixedFvPatchField<Type>::operator=(const Foam::UList<T>&) [with Type = double]’ was hidden [-Woverloaded-virtual=]
  257 |         virtual void operator=(const UList<Type>&) {}
      |                      ^~~~~~~~
/home/kol/OpenFOAM/OpenFOAM-13/src/thermophysicalModels/basic/lnInclude/mixedEnergyFvPatchScalarField.H:63:7: note:   by ‘Foam::mixedEnergyFvPatchScalarField& Foam::mixedEnergyFvPatchScalarField::operator=(const Foam::mixedEnergyFvPatchScalarField&)’
   63 | class mixedEnergyFvPatchScalarField
      |       ^~~~~~~~~~~~~~~~~~~~~~~~~~~~~
/home/kol/OpenFOAM/OpenFOAM-13/src/finiteVolume/lnInclude/calculatedFvPatchField.H: In instantiation of ‘class Foam::calculatedFvPatchField<double>’:
/home/kol/OpenFOAM/OpenFOAM-13/src/finiteVolume/lnInclude/calculatedFvPatchField.C:52:42:   required from ‘static const Foam::word& Foam::fvPatchField<Type>::calculatedType() [with Type = double]’
   52 |     return calculatedFvPatchField<Type>::typeName;
      |                                          ^~~~~~~~
/home/kol/OpenFOAM/OpenFOAM-13/src/OpenFOAM/lnInclude/GeometricField.H:188:63:   required from here
  188 |             const word& patchFieldType = Patch::calculatedType()
      |                                          ~~~~~~~~~~~~~~~~~~~~~^~
/home/kol/OpenFOAM/OpenFOAM-13/src/finiteVolume/lnInclude/fvPatchField.C:266:6: warning: ‘void Foam::fvPatchField<Type>::operator=(const Foam::fvPatchField<Type>&) [with Type = double]’ was hidden [-Woverloaded-virtual=]
  266 | void Foam::fvPatchField<Type>::operator=
      |      ^~~~
In file included from /home/kol/OpenFOAM/OpenFOAM-13/src/finiteVolume/lnInclude/fvPatchField.H:593:
/home/kol/OpenFOAM/OpenFOAM-13/src/finiteVolume/lnInclude/calculatedFvPatchField.H:62:7: note:   by ‘Foam::calculatedFvPatchField<double>& Foam::calculatedFvPatchField<double>::operator=(const Foam::calculatedFvPatchField<double>&)’
   62 | class calculatedFvPatchField
      |       ^~~~~~~~~~~~~~~~~~~~~~
/home/kol/OpenFOAM/OpenFOAM-13/src/finiteVolume/lnInclude/fvPatchField.H:565:22: warning: ‘void Foam::fvPatchField<Type>::operator=(const Type&) [with Type = double]’ was hidden [-Woverloaded-virtual=]
  565 |         virtual void operator=(const Type&);
      |                      ^~~~~~~~
/home/kol/OpenFOAM/OpenFOAM-13/src/finiteVolume/lnInclude/calculatedFvPatchField.H:62:7: note:   by ‘Foam::calculatedFvPatchField<double>& Foam::calculatedFvPatchField<double>::operator=(const Foam::calculatedFvPatchField<double>&)’
   62 | class calculatedFvPatchField
      |       ^~~~~~~~~~~~~~~~~~~~~~
/home/kol/OpenFOAM/OpenFOAM-13/src/finiteVolume/lnInclude/fvPatchField.C:256:6: warning: ‘void Foam::fvPatchField<Type>::operator=(const Foam::UList<T>&) [with Type = double]’ was hidden [-Woverloaded-virtual=]
  256 | void Foam::fvPatchField<Type>::operator=
      |      ^~~~
/home/kol/OpenFOAM/OpenFOAM-13/src/finiteVolume/lnInclude/calculatedFvPatchField.H:62:7: note:   by ‘Foam::calculatedFvPatchField<double>& Foam::calculatedFvPatchField<double>::operator=(const Foam::calculatedFvPatchField<double>&)’
   62 | class calculatedFvPatchField
      |       ^~~~~~~~~~~~~~~~~~~~~~
    ld: /home/kol/OpenFOAM/OpenFOAM-13/test/multiphaseEuler/heatTransferLimitedPhaseChange/waterEvaporation/dynamicCode/continuity/../platforms/linux64GccDPInt64Opt/lib/libcontinuity_352b58499209f8be8bacacc8301c3d21c343b3e8.so
make[3]: Leaving directory '/home/kol/OpenFOAM/OpenFOAM-13/test/multiphaseEuler/heatTransferLimitedPhaseChange/waterEvaporation/dynamicCode/continuity'
volFieldValue plot read:
    number of cells = 1
    volume = 1
    operation = volAverage

Courant Number mean: 0 max: 0
Time = 0.005s

PIMPLE: Iteration 1
heatTransferLimitedPhaseChange: phaseChange
    min/mean/max Tsat = 372.76/372.76/372.76
    min/mean/max mDot = -4.007814237/-4.007814237/-4.007814237
MULES: Solving for alpha.steam
MULES: Solving for alpha.water
MULES: Correcting alpha.steam
MULES: Correcting alpha.water
steam fraction, min, max = 0.99 0.99 0.99
water fraction, min, max = 0.01 0.01 0.01
Phase-sum volume fraction, min, max = 1 1 1
MULES: Solving for alpha.steam
MULES: Solving for alpha.water
MULES: Correcting alpha.steam
MULES: Correcting alpha.water
steam fraction, min, max = 0.99 0.99 0.99
water fraction, min, max = 0.01 0.01 0.01
Phase-sum volume fraction, min, max = 1 1 1
MULES: Solving for alpha.steam
MULES: Solving for alpha.water
MULES: Correcting alpha.steam
MULES: Correcting alpha.water
steam fraction, min, max = 0.99 0.99 0.99
water fraction, min, max = 0.01 0.01 0.01
Phase-sum volume fraction, min, max = 1 1 1
Constructing momentum equations
diagonal:  Solving for e.steam, Initial residual = 0, Final residual = 0, No Iterations 0
diagonal:  Solving for e.water, Initial residual = 0, Final residual = 0, No Iterations 0
steam min/max T 379.8023784 - 379.8023784
water min/max T 379.0925761 - 379.0925761
heatTransferLimitedPhaseChange: phaseChange
    min/mean/max Tsat = 372.76/372.76/372.76
    min/mean/max mDot = -3.507175172/-3.507175172/-3.507175172
diagonal:  Solving for p_rgh, Initial residual = 0, Final residual = 0, No Iterations 0
PIMPLE: Iteration 2
heatTransferLimitedPhaseChange: phaseChange
    min/mean/max Tsat = 372.76/372.76/372.76
    min/mean/max mDot = -3.507179788/-3.507179788/-3.507179788
MULES: Solving for alpha.steam
MULES: Solving for alpha.water
MULES: Correcting alpha.steam
MULES: Correcting alpha.water
steam fraction, min, max = 0.9900056884 0.9900056884 0.9900056884
water fraction, min, max = 0.009994311619 0.009994311619 0.009994311619
Phase-sum volume fraction, min, max = 1 1 1
MULES: Solving for alpha.steam
MULES: Solving for alpha.water
MULES: Correcting alpha.steam
MULES: Correcting alpha.water
steam fraction, min, max = 0.9900113735 0.9900113735 0.9900113735
water fraction, min, max = 0.009988626474 0.009988626474 0.009988626474
Phase-sum volume fraction, min, max = 1 1 1
MULES: Solving for alpha.steam
MULES: Solving for alpha.water
MULES: Correcting alpha.steam
MULES: Correcting alpha.water
steam fraction, min, max = 0.9900170554 0.9900170554 0.9900170554
water fraction, min, max = 0.009982944564 0.009982944564 0.009982944564
Phase-sum volume fraction, min, max = 1 1 1
Constructing momentum equations
diagonal:  Solving for e.steam, Initial residual = 0, Final residual = 0, No Iterations 0
diagonal:  Solving for e.water, Initial residual = 0, Final residual = 0, No Iterations 0
steam min/max T 382.9432463 - 382.9432463
water min/max T 379.0911203 - 379.0911203
heatTransferLimitedPhaseChange: phaseChange
    min/mean/max Tsat = 372.76/372.76/372.76
    min/mean/max mDot = -3.507816138/-3.507816138/-3.507816138
diagonal:  Solving for p_rgh, Initial residual = 0, Final residual = 0, No Iterations 0
PIMPLE: Iteration 3
heatTransferLimitedPhaseChange: phaseChange
    min/mean/max Tsat = 372.76/372.76/372.76
    min/mean/max mDot = -3.507817428/-3.507817428/-3.507817428
MULES: Solving for alpha.steam
MULES: Solving for alpha.water
MULES: Correcting alpha.steam
MULES: Correcting alpha.water
steam fraction, min, max = 0.9900056991 0.9900056991 0.9900056991
water fraction, min, max = 0.009994300866 0.009994300866 0.009994300866
Phase-sum volume fraction, min, max = 1 1 1
MULES: Solving for alpha.steam
MULES: Solving for alpha.water
MULES: Correcting alpha.steam
MULES: Correcting alpha.water
steam fraction, min, max = 0.990011395 0.990011395 0.990011395
water fraction, min, max = 0.00998860498 0.00998860498 0.00998860498
Phase-sum volume fraction, min, max = 1 1 1
MULES: Solving for alpha.steam
MULES: Solving for alpha.water
MULES: Correcting alpha.steam
MULES: Correcting alpha.water
steam fraction, min, max = 0.9900170877 0.9900170877 0.9900170877
water fraction, min, max = 0.009982912339 0.009982912339 0.009982912339
Phase-sum volume fraction, min, max = 1 1 1
Constructing momentum equations
diagonal:  Solving for e.steam, Initial residual = 0, Final residual = 0, No Iterations 0
diagonal:  Solving for e.water, Initial residual = 0, Final residual = 0, No Iterations 0
steam min/max T 382.9439796 - 382.9439796
water min/max T 379.0924839 - 379.0924839
heatTransferLimitedPhaseChange: phaseChange
    min/mean/max Tsat = 372.76/372.76/372.76
    min/mean/max mDot = -3.508558192/-3.508558192/-3.508558192
diagonal:  Solving for p_rgh, Initial residual = 0, Final residual = 0, No Iterations 0
PIMPLE: Iteration 4
heatTransferLimitedPhaseChange: phaseChange
    min/mean/max Tsat = 372.76/372.76/372.76
    min/mean/max mDot = -3.508558193/-3.508558193/-3.508558193
MULES: Solving for alpha.steam
MULES: Solving for alpha.water
MULES: Correcting alpha.steam
MULES: Correcting alpha.water
steam fraction, min, max = 0.9900057004 0.9900057004 0.9900057004
water fraction, min, max = 0.009994299642 0.009994299642 0.009994299642
Phase-sum volume fraction, min, max = 1 1 1
MULES: Solving for alpha.steam
MULES: Solving for alpha.water
MULES: Correcting alpha.steam
MULES: Correcting alpha.water
steam fraction, min, max = 0.9900113975 0.9900113975 0.9900113975
water fraction, min, max = 0.009988602534 0.009988602534 0.009988602534
Phase-sum volume fraction, min, max = 1 1 1
MULES: Solving for alpha.steam
MULES: Solving for alpha.water
MULES: Correcting alpha.steam
MULES: Correcting alpha.water
steam fraction, min, max = 0.9900170913 0.9900170913 0.9900170913
water fraction, min, max = 0.009982908674 0.009982908674 0.009982908674
Phase-sum volume fraction, min, max = 1 1 1
Constructing momentum equations
diagonal:  Solving for e.steam, Initial residual = 0, Final residual = 0, No Iterations 0
diagonal:  Solving for e.water, Initial residual = 0, Final residual = 0, No Iterations 0
steam min/max T 382.9446786 - 382.9446786
water min/max T 379.0924885 - 379.0924885
heatTransferLimitedPhaseChange: phaseChange
    min/mean/max Tsat = 372.76/372.76/372.76
    min/mean/max mDot = -3.50856109/-3.50856109/-3.50856109
diagonal:  Solving for p_rgh, Initial residual = 0, Final residual = 0, No Iterations 0
PIMPLE: Iteration 5
heatTransferLimitedPhaseChange: phaseChange
    min/mean/max Tsat = 372.76/372.76/372.76
    min/mean/max mDot = -3.50856109/-3.50856109/-3.50856109
MULES: Solving for alpha.steam
MULES: Solving for alpha.water
MULES: Correcting alpha.steam
MULES: Correcting alpha.water
steam fraction, min, max = 0.9900057004 0.9900057004 0.9900057004
water fraction, min, max = 0.009994299636 0.009994299636 0.009994299636
Phase-sum volume fraction, min, max = 1 1 1
MULES: Solving for alpha.steam
MULES: Solving for alpha.water
MULES: Correcting alpha.steam
MULES: Correcting alpha.water
steam fraction, min, max = 0.9900113975 0.9900113975 0.9900113975
water fraction, min, max = 0.009988602521 0.009988602521 0.009988602521
Phase-sum volume fraction, min, max = 1 1 1
MULES: Solving for alpha.steam
MULES: Solving for alpha.water
MULES: Correcting alpha.steam
MULES: Correcting alpha.water
steam fraction, min, max = 0.9900170913 0.9900170913 0.9900170913
water fraction, min, max = 0.009982908653 0.009982908653 0.009982908653
Phase-sum volume fraction, min, max = 1 1 1
Constructing momentum equations
diagonal:  Solving for e.steam, Initial residual = 0, Final residual = 0, No Iterations 0
diagonal:  Solving for e.water, Initial residual = 0, Final residual = 0, No Iterations 0
steam min/max T 382.9446813 - 382.9446813
water min/max T 379.0924888 - 379.0924888
heatTransferLimitedPhaseChange: phaseChange
    min/mean/max Tsat = 372.76/372.76/372.76
    min/mean/max mDot = -3.508561255/-3.508561255/-3.508561255
diagonal:  Solving for p_rgh, Initial residual = 0, Final residual = 0, No Iterations 0
ExecutionTime = 0.175631 s  ClockTime = 13 s

Courant Number mean: 0 max: 0
Time = 0.01s

PIMPLE: Iteration 1
heatTransferLimitedPhaseChange: phaseChange
    min/mean/max Tsat = 372.76/372.76/372.76
    min/mean/max mDot = -3.508561255/-3.508561255/-3.508561255
MULES: Solving for alpha.steam
MULES: Solving for alpha.water
MULES: Correcting alpha.steam
MULES: Correcting alpha.water
steam fraction, min, max = 0.990022782 0.990022782 0.990022782
water fraction, min, max = 0.009977218031 0.009977218031 0.009977218031
Phase-sum volume fraction, min, max = 1 1 1
MULES: Solving for alpha.steam
MULES: Solving for alpha.water
MULES: Correcting alpha.steam
MULES: Correcting alpha.water
steam fraction, min, max = 0.9900284693 0.9900284693 0.9900284693
water fraction, min, max = 0.009971530653 0.009971530653 0.009971530653
Phase-sum volume fraction, min, max = 1 1 1
MULES: Solving for alpha.steam
MULES: Solving for alpha.water
MULES: Correcting alpha.steam
MULES: Correcting alpha.water
steam fraction, min, max = 0.9900341535 0.9900341535 0.9900341535
water fraction, min, max = 0.009965846517 0.009965846517 0.009965846517
Phase-sum volume fraction, min, max = 1 1 1
Constructing momentum equations
diagonal:  Solving for e.steam, Initial residual = 0, Final residual = 0, No Iterations 0
diagonal:  Solving for e.water, Initial residual = 0, Final residual = 0, No Iterations 0
steam min/max T 382.5322348 - 382.5322348
water min/max T 378.2979652 - 378.2979652
heatTransferLimitedPhaseChange: phaseChange
    min/mean/max Tsat = 372.76/372.76/372.76
    min/mean/max mDot = -3.065146137/-3.065146137/-3.065146137
diagonal:  Solving for p_rgh, Initial residual = 0, Final residual = 0, No Iterations 0
PIMPLE: Iteration 2
heatTransferLimitedPhaseChange: phaseChange
    min/mean/max Tsat = 372.76/372.76/372.76
    min/mean/max mDot = -3.0651496/-3.0651496/-3.0651496
MULES: Solving for alpha.steam
MULES: Solving for alpha.water
MULES: Correcting alpha.steam
MULES: Correcting alpha.water
steam fraction, min, max = 0.9900220716 0.9900220716 0.9900220716
water fraction, min, max = 0.009977928351 0.009977928351 0.009977928351
Phase-sum volume fraction, min, max = 1 1 1
MULES: Solving for alpha.steam
MULES: Solving for alpha.water
MULES: Correcting alpha.steam
MULES: Correcting alpha.water
steam fraction, min, max = 0.9900270495 0.9900270495 0.9900270495
water fraction, min, max = 0.009972950534 0.009972950534 0.009972950534
Phase-sum volume fraction, min, max = 1 1 1
MULES: Solving for alpha.steam
MULES: Solving for alpha.water
MULES: Correcting alpha.steam
MULES: Correcting alpha.water
steam fraction, min, max = 0.9900320248 0.9900320248 0.9900320248
water fraction, min, max = 0.0099679752 0.0099679752 0.0099679752
Phase-sum volume fraction, min, max = 1 1 1
Constructing momentum equations
diagonal:  Solving for e.steam, Initial residual = 0, Final residual = 0, No Iterations 0
diagonal:  Solving for e.water, Initial residual = 0, Final residual = 0, No Iterations 0
steam min/max T 385.2506613 - 385.2506613
water min/max T 378.2982125 - 378.2982125
heatTransferLimitedPhaseChange: phaseChange
    min/mean/max Tsat = 372.76/372.76/372.76
    min/mean/max mDot = -3.072351806/-3.072351806/-3.072351806
diagonal:  Solving for p_rgh, Initial residual = 0, Final residual = 0, No Iterations 0
PIMPLE: Iteration 3
heatTransferLimitedPhaseChange: phaseChange
    min/mean/max Tsat = 372.76/372.76/372.76
    min/mean/max mDot = -3.072352818/-3.072352818/-3.072352818
MULES: Solving for alpha.steam
MULES: Solving for alpha.water
MULES: Correcting alpha.steam
MULES: Correcting alpha.water
steam fraction, min, max = 0.9900220823 0.9900220823 0.9900220823
water fraction, min, max = 0.009977917715 0.009977917715 0.009977917715
Phase-sum volume fraction, min, max = 1 1 1
MULES: Solving for alpha.steam
MULES: Solving for alpha.water
MULES: Correcting alpha.steam
MULES: Correcting alpha.water
steam fraction, min, max = 0.9900270707 0.9900270707 0.9900270707
water fraction, min, max = 0.009972929271 0.009972929271 0.009972929271
Phase-sum volume fraction, min, max = 1 1 1
MULES: Solving for alpha.steam
MULES: Solving for alpha.water
MULES: Correcting alpha.steam
MULES: Correcting alpha.water
steam fraction, min, max = 0.9900320567 0.9900320567 0.9900320567
water fraction, min, max = 0.009967943322 0.009967943322 0.009967943322
Phase-sum volume fraction, min, max = 1 1 1
Constructing momentum equations
diagonal:  Solving for e.steam, Initial residual = 0, Final residual = 0, No Iterations 0
diagonal:  Solving for e.water, Initial residual = 0, Final residual = 0, No Iterations 0
steam min/max T 385.2565598 - 385.2565598
water min/max T 378.2980717 - 378.2980717
heatTransferLimitedPhaseChange: phaseChange
    min/mean/max Tsat = 372.76/372.76/372.76
    min/mean/max mDot = -3.072279523/-3.072279523/-3.072279523
diagonal:  Solving for p_rgh, Initial residual = 0, Final residual = 0, No Iterations 0
PIMPLE: Iteration 4
heatTransferLimitedPhaseChange: phaseChange
    min/mean/max Tsat = 372.76/372.76/372.76
    min/mean/max mDot = -3.072279525/-3.072279525/-3.072279525
MULES: Solving for alpha.steam
MULES: Solving for alpha.water
MULES: Correcting alpha.steam
MULES: Correcting alpha.water
steam fraction, min, max = 0.9900220822 0.9900220822 0.9900220822
water fraction, min, max = 0.009977917816 0.009977917816 0.009977917816
Phase-sum volume fraction, min, max = 1 1 1
MULES: Solving for alpha.steam
MULES: Solving for alpha.water
MULES: Correcting alpha.steam
MULES: Correcting alpha.water
steam fraction, min, max = 0.9900270705 0.9900270705 0.9900270705
water fraction, min, max = 0.009972929474 0.009972929474 0.009972929474
Phase-sum volume fraction, min, max = 1 1 1
MULES: Solving for alpha.steam
MULES: Solving for alpha.water
MULES: Correcting alpha.steam
MULES: Correcting alpha.water
steam fraction, min, max = 0.9900320564 0.9900320564 0.9900320564
water fraction, min, max = 0.009967943626 0.009967943626 0.009967943626
Phase-sum volume fraction, min, max = 1 1 1
Constructing momentum equations
diagonal:  Solving for e.steam, Initial residual = 0, Final residual = 0, No Iterations 0
diagonal:  Solving for e.water, Initial residual = 0, Final residual = 0, No Iterations 0
steam min/max T 385.2564963 - 385.2564963
water min/max T 378.2980738 - 378.2980738
heatTransferLimitedPhaseChange: phaseChange
    min/mean/max Tsat = 372.76/372.76/372.76
    min/mean/max mDot = -3.072280604/-3.072280604/-3.072280604
diagonal:  Solving for p_rgh, Initial residual = 0, Final residual = 0, No Iterations 0
PIMPLE: Iteration 5
heatTransferLimitedPhaseChange: phaseChange
    min/mean/max Tsat = 372.76/372.76/372.76
    min/mean/max mDot = -3.072280603/-3.072280603/-3.072280603
MULES: Solving for alpha.steam
MULES: Solving for alpha.water
MULES: Correcting alpha.steam
MULES: Correcting alpha.water
steam fraction, min, max = 0.9900220822 0.9900220822 0.9900220822
water fraction, min, max = 0.009977917815 0.009977917815 0.009977917815
Phase-sum volume fraction, min, max = 1 1 1
MULES: Solving for alpha.steam
MULES: Solving for alpha.water
MULES: Correcting alpha.steam
MULES: Correcting alpha.water
steam fraction, min, max = 0.9900270705 0.9900270705 0.9900270705
water fraction, min, max = 0.009972929471 0.009972929471 0.009972929471
Phase-sum volume fraction, min, max = 1 1 1
MULES: Solving for alpha.steam
MULES: Solving for alpha.water
MULES: Correcting alpha.steam
MULES: Correcting alpha.water
steam fraction, min, max = 0.9900320564 0.9900320564 0.9900320564
water fraction, min, max = 0.009967943621 0.009967943621 0.009967943621
Phase-sum volume fraction, min, max = 1 1 1
Constructing momentum equations
diagonal:  Solving for e.steam, Initial residual = 0, Final residual = 0, No Iterations 0
diagonal:  Solving for e.water, Initial residual = 0, Final residual = 0, No Iterations 0
steam min/max T 385.2564973 - 385.2564973
water min/max T 378.2980737 - 378.2980737
heatTransferLimitedPhaseChange: phaseChange
    min/mean/max Tsat = 372.76/372.76/372.76
    min/mean/max mDot = -3.072280594/-3.072280594/-3.072280594
diagonal:  Solving for p_rgh, Initial residual = 0, Final residual = 0, No Iterations 0
ExecutionTime = 0.194935 s  ClockTime = 13 s

Courant Number mean: 0 max: 0
Time = 0.015s

PIMPLE: Iteration 1
heatTransferLimitedPhaseChange: phaseChange
    min/mean/max Tsat = 372.76/372.76/372.76
    min/mean/max mDot = -3.072280594/-3.072280594/-3.072280594
MULES: Solving for alpha.steam
MULES: Solving for alpha.water
MULES: Correcting alpha.steam
MULES: Correcting alpha.water
steam fraction, min, max = 0.9900370397 0.9900370397 0.9900370397
water fraction, min, max = 0.009962960264 0.009962960264 0.009962960264
Phase-sum volume fraction, min, max = 1 1 1
MULES: Solving for alpha.steam
MULES: Solving for alpha.water
MULES: Correcting alpha.steam
MULES: Correcting alpha.water
steam fraction, min, max = 0.9900420206 0.9900420206 0.9900420206
water fraction, min, max = 0.009957979398 0.009957979398 0.009957979398
Phase-sum volume fraction, min, max = 1 1 1
MULES: Solving for alpha.steam
MULES: Solving for alpha.water
MULES: Correcting alpha.steam
MULES: Correcting alpha.water
steam fraction, min, max = 0.990046999 0.990046999 0.990046999
water fraction, min, max = 0.009953001023 0.009953001023 0.009953001023
Phase-sum volume fraction, min, max = 1 1 1
Constructing momentum equations
diagonal:  Solving for e.steam, Initial residual = 0, Final residual = 0, No Iterations 0
diagonal:  Solving for e.water, Initial residual = 0, Final residual = 0, No Iterations 0
steam min/max T 384.7121329 - 384.7121329
water min/max T 377.6027276 - 377.6027276
heatTransferLimitedPhaseChange: phaseChange
    min/mean/max Tsat = 372.76/372.76/372.76
    min/mean/max mDot = -2.684918871/-2.684918871/-2.684918871
diagonal:  Solving for p_rgh, Initial residual = 0, Final residual = 0, No Iterations 0
PIMPLE: Iteration 2
heatTransferLimitedPhaseChange: phaseChange
    min/mean/max Tsat = 372.76/372.76/372.76
    min/mean/max mDot = -2.684921482/-2.684921482/-2.684921482
MULES: Solving for alpha.steam
MULES: Solving for alpha.water
MULES: Correcting alpha.steam
MULES: Correcting alpha.water
steam fraction, min, max = 0.9900364182 0.9900364182 0.9900364182
water fraction, min, max = 0.009963581769 0.009963581769 0.009963581769
Phase-sum volume fraction, min, max = 1 1 1
MULES: Solving for alpha.steam
MULES: Solving for alpha.water
MULES: Correcting alpha.steam
MULES: Correcting alpha.water
steam fraction, min, max = 0.9900407782 0.9900407782 0.9900407782
water fraction, min, max = 0.009959221826 0.009959221826 0.009959221826
Phase-sum volume fraction, min, max = 1 1 1
MULES: Solving for alpha.steam
MULES: Solving for alpha.water
MULES: Correcting alpha.steam
MULES: Correcting alpha.water
steam fraction, min, max = 0.9900451362 0.9900451362 0.9900451362
water fraction, min, max = 0.009954863791 0.009954863791 0.009954863791
Phase-sum volume fraction, min, max = 1 1 1
Constructing momentum equations
diagonal:  Solving for e.steam, Initial residual = 0, Final residual = 0, No Iterations 0
diagonal:  Solving for e.water, Initial residual = 0, Final residual = 0, No Iterations 0
steam min/max T 387.0710042 - 387.0710042
water min/max T 377.6029214 - 377.6029214
heatTransferLimitedPhaseChange: phaseChange
    min/mean/max Tsat = 372.76/372.76/372.76
    min/mean/max mDot = -2.69108655/-2.69108655/-2.69108655
diagonal:  Solving for p_rgh, Initial residual = 0, Final residual = 0, No Iterations 0
PIMPLE: Iteration 3
heatTransferLimitedPhaseChange: phaseChange
    min/mean/max Tsat = 372.76/372.76/372.76
    min/mean/max mDot = -2.691087336/-2.691087336/-2.691087336
MULES: Solving for alpha.steam
MULES: Solving for alpha.water
MULES: Correcting alpha.steam
MULES: Correcting alpha.water
steam fraction, min, max = 0.9900364274 0.9900364274 0.9900364274
water fraction, min, max = 0.009963572572 0.009963572572 0.009963572572
Phase-sum volume fraction, min, max = 1 1 1
MULES: Solving for alpha.steam
MULES: Solving for alpha.water
MULES: Correcting alpha.steam
MULES: Correcting alpha.water
steam fraction, min, max = 0.9900407966 0.9900407966 0.9900407966
water fraction, min, max = 0.009959203439 0.009959203439 0.009959203439
Phase-sum volume fraction, min, max = 1 1 1
MULES: Solving for alpha.steam
MULES: Solving for alpha.water
MULES: Correcting alpha.steam
MULES: Correcting alpha.water
steam fraction, min, max = 0.9900451638 0.9900451638 0.9900451638
water fraction, min, max = 0.009954836222 0.009954836222 0.009954836222
Phase-sum volume fraction, min, max = 1 1 1
Constructing momentum equations
diagonal:  Solving for e.steam, Initial residual = 0, Final residual = 0, No Iterations 0
diagonal:  Solving for e.water, Initial residual = 0, Final residual = 0, No Iterations 0
steam min/max T 387.0758132 - 387.0758132
water min/max T 377.6028129 - 377.6028129
heatTransferLimitedPhaseChange: phaseChange
    min/mean/max Tsat = 372.76/372.76/372.76
    min/mean/max mDot = -2.69103171/-2.69103171/-2.69103171
diagonal:  Solving for p_rgh, Initial residual = 0, Final residual = 0, No Iterations 0
PIMPLE: Iteration 4
heatTransferLimitedPhaseChange: phaseChange
    min/mean/max Tsat = 372.76/372.76/372.76
    min/mean/max mDot = -2.691031712/-2.691031712/-2.691031712
MULES: Solving for alpha.steam
MULES: Solving for alpha.water
MULES: Correcting alpha.steam
MULES: Correcting alpha.water
steam fraction, min, max = 0.9900364274 0.9900364274 0.9900364274
water fraction, min, max = 0.009963572649 0.009963572649 0.009963572649
Phase-sum volume fraction, min, max = 1 1 1
MULES: Solving for alpha.steam
MULES: Solving for alpha.water
MULES: Correcting alpha.steam
MULES: Correcting alpha.water
steam fraction, min, max = 0.9900407964 0.9900407964 0.9900407964
water fraction, min, max = 0.009959203593 0.009959203593 0.009959203593
Phase-sum volume fraction, min, max = 1 1 1
MULES: Solving for alpha.steam
MULES: Solving for alpha.water
MULES: Correcting alpha.steam
MULES: Correcting alpha.water
steam fraction, min, max = 0.9900451635 0.9900451635 0.9900451635
water fraction, min, max = 0.009954836452 0.009954836452 0.009954836452
Phase-sum volume fraction, min, max = 1 1 1
Constructing momentum equations
diagonal:  Solving for e.steam, Initial residual = 0, Final residual = 0, No Iterations 0
diagonal:  Solving for e.water, Initial residual = 0, Final residual = 0, No Iterations 0
steam min/max T 387.0757676 - 387.0757676
water min/max T 377.6028145 - 377.6028145
heatTransferLimitedPhaseChange: phaseChange
    min/mean/max Tsat = 372.76/372.76/372.76
    min/mean/max mDot = -2.691032536/-2.691032536/-2.691032536
diagonal:  Solving for p_rgh, Initial residual = 0, Final residual = 0, No Iterations 0
PIMPLE: Iteration 5
heatTransferLimitedPhaseChange: phaseChange
    min/mean/max Tsat = 372.76/372.76/372.76
    min/mean/max mDot = -2.691032536/-2.691032536/-2.691032536
MULES: Solving for alpha.steam
MULES: Solving for alpha.water
MULES: Correcting alpha.steam
MULES: Correcting alpha.water
steam fraction, min, max = 0.9900364274 0.9900364274 0.9900364274
water fraction, min, max = 0.009963572647 0.009963572647 0.009963572647
Phase-sum volume fraction, min, max = 1 1 1
MULES: Solving for alpha.steam
MULES: Solving for alpha.water
MULES: Correcting alpha.steam
MULES: Correcting alpha.water
steam fraction, min, max = 0.9900407964 0.9900407964 0.9900407964
water fraction, min, max = 0.00995920359 0.00995920359 0.00995920359
Phase-sum volume fraction, min, max = 1 1 1
MULES: Solving for alpha.steam
MULES: Solving for alpha.water
MULES: Correcting alpha.steam
MULES: Correcting alpha.water
steam fraction, min, max = 0.9900451636 0.9900451636 0.9900451636
water fraction, min, max = 0.009954836449 0.009954836449 0.009954836449
Phase-sum volume fraction, min, max = 1 1 1
Constructing momentum equations
diagonal:  Solving for e.steam, Initial residual = 0, Final residual = 0, No Iterations 0
diagonal:  Solving for e.water, Initial residual = 0, Final residual = 0, No Iterations 0
steam min/max T 387.0757683 - 387.0757683
water min/max T 377.6028145 - 377.6028145
heatTransferLimitedPhaseChange: phaseChange
    min/mean/max Tsat = 372.76/372.76/372.76
    min/mean/max mDot = -2.69103253/-2.69103253/-2.69103253
diagonal:  Solving for p_rgh, Initial residual = 0, Final residual = 0, No Iterations 0
ExecutionTime = 0.213799 s  ClockTime = 14 s

Courant Number mean: 0 max: 0
Time = 0.02s

PIMPLE: Iteration 1
heatTransferLimitedPhaseChange: phaseChange
    min/mean/max Tsat = 372.76/372.76/372.76
    min/mean/max mDot = -2.69103253/-2.69103253/-2.69103253
MULES: Solving for alpha.steam
MULES: Solving for alpha.water
MULES: Correcting alpha.steam
MULES: Correcting alpha.water
steam fraction, min, max = 0.9900495288 0.9900495288 0.9900495288
water fraction, min, max = 0.009950471222 0.009950471222 0.009950471222
Phase-sum volume fraction, min, max = 1 1 1
MULES: Solving for alpha.steam
MULES: Solving for alpha.water
MULES: Correcting alpha.steam
MULES: Correcting alpha.water
steam fraction, min, max = 0.9900538921 0.9900538921 0.9900538921
water fraction, min, max = 0.00994610791 0.00994610791 0.00994610791
Phase-sum volume fraction, min, max = 1 1 1
MULES: Solving for alpha.steam
MULES: Solving for alpha.water
MULES: Correcting alpha.steam
MULES: Correcting alpha.water
steam fraction, min, max = 0.9900582535 0.9900582535 0.9900582535
water fraction, min, max = 0.009941746511 0.009941746511 0.009941746511
Phase-sum volume fraction, min, max = 1 1 1
Constructing momentum equations
diagonal:  Solving for e.steam, Initial residual = 0, Final residual = 0, No Iterations 0
diagonal:  Solving for e.water, Initial residual = 0, Final residual = 0, No Iterations 0
steam min/max T 386.4535445 - 386.4535445
water min/max T 376.9943834 - 376.9943834
heatTransferLimitedPhaseChange: phaseChange
    min/mean/max Tsat = 372.76/372.76/372.76
    min/mean/max mDot = -2.35261563/-2.35261563/-2.35261563
diagonal:  Solving for p_rgh, Initial residual = 0, Final residual = 0, No Iterations 0
PIMPLE: Iteration 2
heatTransferLimitedPhaseChange: phaseChange
    min/mean/max Tsat = 372.76/372.76/372.76
    min/mean/max mDot = -2.352617599/-2.352617599/-2.352617599
MULES: Solving for alpha.steam
MULES: Solving for alpha.water
MULES: Correcting alpha.steam
MULES: Correcting alpha.water
steam fraction, min, max = 0.9900489851 0.9900489851 0.9900489851
water fraction, min, max = 0.009951014948 0.009951014948 0.009951014948
Phase-sum volume fraction, min, max = 1 1 1
MULES: Solving for alpha.steam
MULES: Solving for alpha.water
MULES: Correcting alpha.steam
MULES: Correcting alpha.water
steam fraction, min, max = 0.9900528051 0.9900528051 0.9900528051
water fraction, min, max = 0.009947194914 0.009947194914 0.009947194914
Phase-sum volume fraction, min, max = 1 1 1
MULES: Solving for alpha.steam
MULES: Solving for alpha.water
MULES: Correcting alpha.steam
MULES: Correcting alpha.water
steam fraction, min, max = 0.9900566237 0.9900566237 0.9900566237
water fraction, min, max = 0.009943376346 0.009943376346 0.009943376346
Phase-sum volume fraction, min, max = 1 1 1
Constructing momentum equations
diagonal:  Solving for e.steam, Initial residual = 0, Final residual = 0, No Iterations 0
diagonal:  Solving for e.water, Initial residual = 0, Final residual = 0, No Iterations 0
steam min/max T 388.5022419 - 388.5022419
water min/max T 376.9945354 - 376.9945354
heatTransferLimitedPhaseChange: phaseChange
    min/mean/max Tsat = 372.76/372.76/372.76
    min/mean/max mDot = -2.35790667/-2.35790667/-2.35790667
diagonal:  Solving for p_rgh, Initial residual = 0, Final residual = 0, No Iterations 0
PIMPLE: Iteration 3
heatTransferLimitedPhaseChange: phaseChange
    min/mean/max Tsat = 372.76/372.76/372.76
    min/mean/max mDot = -2.35790728/-2.35790728/-2.35790728
MULES: Solving for alpha.steam
MULES: Solving for alpha.water
MULES: Correcting alpha.steam
MULES: Correcting alpha.water
steam fraction, min, max = 0.990048993 0.990048993 0.990048993
water fraction, min, max = 0.009951006984 0.009951006984 0.009951006984
Phase-sum volume fraction, min, max = 1 1 1
MULES: Solving for alpha.steam
MULES: Solving for alpha.water
MULES: Correcting alpha.steam
MULES: Correcting alpha.water
steam fraction, min, max = 0.990052821 0.990052821 0.990052821
water fraction, min, max = 0.009947178992 0.009947178992 0.009947178992
Phase-sum volume fraction, min, max = 1 1 1
MULES: Solving for alpha.steam
MULES: Solving for alpha.water
MULES: Correcting alpha.steam
MULES: Correcting alpha.water
steam fraction, min, max = 0.9900566475 0.9900566475 0.9900566475
water fraction, min, max = 0.009943352473 0.009943352473 0.009943352473
Phase-sum volume fraction, min, max = 1 1 1
Constructing momentum equations
diagonal:  Solving for e.steam, Initial residual = 0, Final residual = 0, No Iterations 0
diagonal:  Solving for e.water, Initial residual = 0, Final residual = 0, No Iterations 0
steam min/max T 388.5062012 - 388.5062012
water min/max T 376.9944519 - 376.9944519
heatTransferLimitedPhaseChange: phaseChange
    min/mean/max Tsat = 372.76/372.76/372.76
    min/mean/max mDot = -2.357865191/-2.357865191/-2.357865191
diagonal:  Solving for p_rgh, Initial residual = 0, Final residual = 0, No Iterations 0
PIMPLE: Iteration 4
heatTransferLimitedPhaseChange: phaseChange
    min/mean/max Tsat = 372.76/372.76/372.76
    min/mean/max mDot = -2.357865192/-2.357865192/-2.357865192
MULES: Solving for alpha.steam
MULES: Solving for alpha.water
MULES: Correcting alpha.steam
MULES: Correcting alpha.water
steam fraction, min, max = 0.990048993 0.990048993 0.990048993
water fraction, min, max = 0.009951007042 0.009951007042 0.009951007042
Phase-sum volume fraction, min, max = 1 1 1
MULES: Solving for alpha.steam
MULES: Solving for alpha.water
MULES: Correcting alpha.steam
MULES: Correcting alpha.water
steam fraction, min, max = 0.9900528209 0.9900528209 0.9900528209
water fraction, min, max = 0.009947179109 0.009947179109 0.009947179109
Phase-sum volume fraction, min, max = 1 1 1
MULES: Solving for alpha.steam
MULES: Solving for alpha.water
MULES: Correcting alpha.steam
MULES: Correcting alpha.water
steam fraction, min, max = 0.9900566474 0.9900566474 0.9900566474
water fraction, min, max = 0.009943352648 0.009943352648 0.009943352648
Phase-sum volume fraction, min, max = 1 1 1
Constructing momentum equations
diagonal:  Solving for e.steam, Initial residual = 0, Final residual = 0, No Iterations 0
diagonal:  Solving for e.water, Initial residual = 0, Final residual = 0, No Iterations 0
steam min/max T 388.5061683 - 388.5061683
water min/max T 376.9944531 - 376.9944531
heatTransferLimitedPhaseChange: phaseChange
    min/mean/max Tsat = 372.76/372.76/372.76
    min/mean/max mDot = -2.357865823/-2.357865823/-2.357865823
diagonal:  Solving for p_rgh, Initial residual = 0, Final residual = 0, No Iterations 0
PIMPLE: Iteration 5
heatTransferLimitedPhaseChange: phaseChange
    min/mean/max Tsat = 372.76/372.76/372.76
    min/mean/max mDot = -2.357865823/-2.357865823/-2.357865823
MULES: Solving for alpha.steam
MULES: Solving for alpha.water
MULES: Correcting alpha.steam
MULES: Correcting alpha.water
steam fraction, min, max = 0.990048993 0.990048993 0.990048993
water fraction, min, max = 0.009951007041 0.009951007041 0.009951007041
Phase-sum volume fraction, min, max = 1 1 1
MULES: Solving for alpha.steam
MULES: Solving for alpha.water
MULES: Correcting alpha.steam
MULES: Correcting alpha.water
steam fraction, min, max = 0.9900528209 0.9900528209 0.9900528209
water fraction, min, max = 0.009947179107 0.009947179107 0.009947179107
Phase-sum volume fraction, min, max = 1 1 1
MULES: Solving for alpha.steam
MULES: Solving for alpha.water
MULES: Correcting alpha.steam
MULES: Correcting alpha.water
steam fraction, min, max = 0.9900566474 0.9900566474 0.9900566474
water fraction, min, max = 0.009943352645 0.009943352645 0.009943352645
Phase-sum volume fraction, min, max = 1 1 1
Constructing momentum equations
diagonal:  Solving for e.steam, Initial residual = 0, Final residual = 0, No Iterations 0
diagonal:  Solving for e.water, Initial residual = 0, Final residual = 0, No Iterations 0
steam min/max T 388.5061688 - 388.5061688
water min/max T 376.9944531 - 376.9944531
heatTransferLimitedPhaseChange: phaseChange
    min/mean/max Tsat = 372.76/372.76/372.76
    min/mean/max mDot = -2.357865819/-2.357865819/-2.357865819
diagonal:  Solving for p_rgh, Initial residual = 0, Final residual = 0, No Iterations 0
ExecutionTime = 0.231274 s  ClockTime = 14 s

Courant Number mean: 0 max: 0
Time = 0.025s

PIMPLE: Iteration 1
heatTransferLimitedPhaseChange: phaseChange
    min/mean/max Tsat = 372.76/372.76/372.76
    min/mean/max mDot = -2.357865819/-2.357865819/-2.357865819
MULES: Solving for alpha.steam
MULES: Solving for alpha.water
MULES: Correcting alpha.steam
MULES: Correcting alpha.water
steam fraction, min, max = 0.9900604723 0.9900604723 0.9900604723
water fraction, min, max = 0.009939527655 0.009939527655 0.009939527655
Phase-sum volume fraction, min, max = 1 1 1
MULES: Solving for alpha.steam
MULES: Solving for alpha.water
MULES: Correcting alpha.steam
MULES: Correcting alpha.water
steam fraction, min, max = 0.9900642959 0.9900642959 0.9900642959
water fraction, min, max = 0.009935704136 0.009935704136 0.009935704136
Phase-sum volume fraction, min, max = 1 1 1
MULES: Solving for alpha.steam
MULES: Solving for alpha.water
MULES: Correcting alpha.steam
MULES: Correcting alpha.water
steam fraction, min, max = 0.9900681179 0.9900681179 0.9900681179
water fraction, min, max = 0.009931882089 0.009931882089 0.009931882089
Phase-sum volume fraction, min, max = 1 1 1
Constructing momentum equations
diagonal:  Solving for e.steam, Initial residual = 0, Final residual = 0, No Iterations 0
diagonal:  Solving for e.water, Initial residual = 0, Final residual = 0, No Iterations 0
steam min/max T 387.8415118 - 387.8415118
water min/max T 376.4621631 - 376.4621631
heatTransferLimitedPhaseChange: phaseChange
    min/mean/max Tsat = 372.76/372.76/372.76
    min/mean/max mDot = -2.062182883/-2.062182883/-2.062182883
diagonal:  Solving for p_rgh, Initial residual = 0, Final residual = 0, No Iterations 0
PIMPLE: Iteration 2
heatTransferLimitedPhaseChange: phaseChange
    min/mean/max Tsat = 372.76/372.76/372.76
    min/mean/max mDot = -2.062184369/-2.062184369/-2.062184369
MULES: Solving for alpha.steam
MULES: Solving for alpha.water
MULES: Correcting alpha.steam
MULES: Correcting alpha.water
steam fraction, min, max = 0.9900599967 0.9900599967 0.9900599967
water fraction, min, max = 0.009940003295 0.009940003295 0.009940003295
Phase-sum volume fraction, min, max = 1 1 1
MULES: Solving for alpha.steam
MULES: Solving for alpha.water
MULES: Correcting alpha.steam
MULES: Correcting alpha.water
steam fraction, min, max = 0.9900633449 0.9900633449 0.9900633449
water fraction, min, max = 0.009936655074 0.009936655074 0.009936655074
Phase-sum volume fraction, min, max = 1 1 1
MULES: Solving for alpha.steam
MULES: Solving for alpha.water
MULES: Correcting alpha.steam
MULES: Correcting alpha.water
steam fraction, min, max = 0.990066692 0.990066692 0.990066692
water fraction, min, max = 0.009933307981 0.009933307981 0.009933307981
Phase-sum volume fraction, min, max = 1 1 1
Constructing momentum equations
diagonal:  Solving for e.steam, Initial residual = 0, Final residual = 0, No Iterations 0
diagonal:  Solving for e.water, Initial residual = 0, Final residual = 0, No Iterations 0
steam min/max T 389.6225455 - 389.6225455
water min/max T 376.4622825 - 376.4622825
heatTransferLimitedPhaseChange: phaseChange
    min/mean/max Tsat = 372.76/372.76/372.76
    min/mean/max mDot = -2.066731918/-2.066731918/-2.066731918
diagonal:  Solving for p_rgh, Initial residual = 0, Final residual = 0, No Iterations 0
PIMPLE: Iteration 3
heatTransferLimitedPhaseChange: phaseChange
    min/mean/max Tsat = 372.76/372.76/372.76
    min/mean/max mDot = -2.066732391/-2.066732391/-2.066732391
MULES: Solving for alpha.steam
MULES: Solving for alpha.water
MULES: Correcting alpha.steam
MULES: Correcting alpha.water
steam fraction, min, max = 0.9900600036 0.9900600036 0.9900600036
water fraction, min, max = 0.009939996391 0.009939996391 0.009939996391
Phase-sum volume fraction, min, max = 1 1 1
MULES: Solving for alpha.steam
MULES: Solving for alpha.water
MULES: Correcting alpha.steam
MULES: Correcting alpha.water
steam fraction, min, max = 0.9900633587 0.9900633587 0.9900633587
water fraction, min, max = 0.00993664127 0.00993664127 0.00993664127
Phase-sum volume fraction, min, max = 1 1 1
MULES: Solving for alpha.steam
MULES: Solving for alpha.water
MULES: Correcting alpha.steam
MULES: Correcting alpha.water
steam fraction, min, max = 0.9900667127 0.9900667127 0.9900667127
water fraction, min, max = 0.009933287282 0.009933287282 0.009933287282
Phase-sum volume fraction, min, max = 1 1 1
Constructing momentum equations
diagonal:  Solving for e.steam, Initial residual = 0, Final residual = 0, No Iterations 0
diagonal:  Solving for e.water, Initial residual = 0, Final residual = 0, No Iterations 0
steam min/max T 389.6258334 - 389.6258334
water min/max T 376.4622183 - 376.4622183
heatTransferLimitedPhaseChange: phaseChange
    min/mean/max Tsat = 372.76/372.76/372.76
    min/mean/max mDot = -2.066700647/-2.066700647/-2.066700647
diagonal:  Solving for p_rgh, Initial residual = 0, Final residual = 0, No Iterations 0
PIMPLE: Iteration 4
heatTransferLimitedPhaseChange: phaseChange
    min/mean/max Tsat = 372.76/372.76/372.76
    min/mean/max mDot = -2.066700648/-2.066700648/-2.066700648
MULES: Solving for alpha.steam
MULES: Solving for alpha.water
MULES: Correcting alpha.steam
MULES: Correcting alpha.water
steam fraction, min, max = 0.9900600036 0.9900600036 0.9900600036
water fraction, min, max = 0.009939996435 0.009939996435 0.009939996435
Phase-sum volume fraction, min, max = 1 1 1
MULES: Solving for alpha.steam
MULES: Solving for alpha.water
MULES: Correcting alpha.steam
MULES: Correcting alpha.water
steam fraction, min, max = 0.9900633586 0.9900633586 0.9900633586
water fraction, min, max = 0.009936641358 0.009936641358 0.009936641358
Phase-sum volume fraction, min, max = 1 1 1
MULES: Solving for alpha.steam
MULES: Solving for alpha.water
MULES: Correcting alpha.steam
MULES: Correcting alpha.water
steam fraction, min, max = 0.9900667126 0.9900667126 0.9900667126
water fraction, min, max = 0.009933287413 0.009933287413 0.009933287413
Phase-sum volume fraction, min, max = 1 1 1
Constructing momentum equations
diagonal:  Solving for e.steam, Initial residual = 0, Final residual = 0, No Iterations 0
diagonal:  Solving for e.water, Initial residual = 0, Final residual = 0, No Iterations 0
steam min/max T 389.6258097 - 389.6258097
water min/max T 376.4622192 - 376.4622192
heatTransferLimitedPhaseChange: phaseChange
    min/mean/max Tsat = 372.76/372.76/372.76
    min/mean/max mDot = -2.06670113/-2.06670113/-2.06670113
diagonal:  Solving for p_rgh, Initial residual = 0, Final residual = 0, No Iterations 0
PIMPLE: Iteration 5
heatTransferLimitedPhaseChange: phaseChange
    min/mean/max Tsat = 372.76/372.76/372.76
    min/mean/max mDot = -2.06670113/-2.06670113/-2.06670113
MULES: Solving for alpha.steam
MULES: Solving for alpha.water
MULES: Correcting alpha.steam
MULES: Correcting alpha.water
steam fraction, min, max = 0.9900600036 0.9900600036 0.9900600036
water fraction, min, max = 0.009939996434 0.009939996434 0.009939996434
Phase-sum volume fraction, min, max = 1 1 1
MULES: Solving for alpha.steam
MULES: Solving for alpha.water
MULES: Correcting alpha.steam
MULES: Correcting alpha.water
steam fraction, min, max = 0.9900633586 0.9900633586 0.9900633586
water fraction, min, max = 0.009936641356 0.009936641356 0.009936641356
Phase-sum volume fraction, min, max = 1 1 1
MULES: Solving for alpha.steam
MULES: Solving for alpha.water
MULES: Correcting alpha.steam
MULES: Correcting alpha.water
steam fraction, min, max = 0.9900667126 0.9900667126 0.9900667126
water fraction, min, max = 0.009933287411 0.009933287411 0.009933287411
Phase-sum volume fraction, min, max = 1 1 1
Constructing momentum equations
diagonal:  Solving for e.steam, Initial residual = 0, Final residual = 0, No Iterations 0
diagonal:  Solving for e.water, Initial residual = 0, Final residual = 0, No Iterations 0
steam min/max T 389.62581 - 389.62581
water min/max T 376.4622192 - 376.4622192
heatTransferLimitedPhaseChange: phaseChange
    min/mean/max Tsat = 372.76/372.76/372.76
    min/mean/max mDot = -2.066701128/-2.066701128/-2.066701128
diagonal:  Solving for p_rgh, Initial residual = 0, Final residual = 0, No Iterations 0
ExecutionTime = 0.247655 s  ClockTime = 14 s

Courant Number mean: 0 max: 0
Time = 0.03s

PIMPLE: Iteration 1
heatTransferLimitedPhaseChange: phaseChange
    min/mean/max Tsat = 372.76/372.76/372.76
    min/mean/max mDot = -2.066701128/-2.066701128/-2.066701128
MULES: Solving for alpha.steam
MULES: Solving for alpha.water
MULES: Correcting alpha.steam
MULES: Correcting alpha.water
steam fraction, min, max = 0.9900700654 0.9900700654 0.9900700654
water fraction, min, max = 0.009929934598 0.009929934598 0.009929934598
Phase-sum volume fraction, min, max = 1 1 1
MULES: Solving for alpha.steam
MULES: Solving for alpha.water
MULES: Correcting alpha.steam
MULES: Correcting alpha.water
steam fraction, min, max = 0.9900734171 0.9900734171 0.9900734171
water fraction, min, max = 0.009926582916 0.009926582916 0.009926582916
Phase-sum volume fraction, min, max = 1 1 1
MULES: Solving for alpha.steam
MULES: Solving for alpha.water
MULES: Correcting alpha.steam
MULES: Correcting alpha.water
steam fraction, min, max = 0.9900767676 0.9900767676 0.9900767676
water fraction, min, max = 0.009923232366 0.009923232366 0.009923232366
Phase-sum volume fraction, min, max = 1 1 1
Constructing momentum equations
diagonal:  Solving for e.steam, Initial residual = 0, Final residual = 0, No Iterations 0
diagonal:  Solving for e.water, Initial residual = 0, Final residual = 0, No Iterations 0
steam min/max T 388.9419287 - 388.9419287
water min/max T 375.9966108 - 375.9966108
heatTransferLimitedPhaseChange: phaseChange
    min/mean/max Tsat = 372.76/372.76/372.76
    min/mean/max mDot = -1.808328792/-1.808328792/-1.808328792
diagonal:  Solving for p_rgh, Initial residual = 0, Final residual = 0, No Iterations 0
PIMPLE: Iteration 2
heatTransferLimitedPhaseChange: phaseChange
    min/mean/max Tsat = 372.76/372.76/372.76
    min/mean/max mDot = -1.808329913/-1.808329913/-1.808329913
MULES: Solving for alpha.steam
MULES: Solving for alpha.water
MULES: Correcting alpha.steam
MULES: Correcting alpha.water
steam fraction, min, max = 0.9900696493 0.9900696493 0.9900696493
water fraction, min, max = 0.00993035066 0.00993035066 0.00993035066
Phase-sum volume fraction, min, max = 1 1 1
MULES: Solving for alpha.steam
MULES: Solving for alpha.water
MULES: Correcting alpha.steam
MULES: Correcting alpha.water
steam fraction, min, max = 0.9900725852 0.9900725852 0.9900725852
water fraction, min, max = 0.009927414777 0.009927414777 0.009927414777
Phase-sum volume fraction, min, max = 1 1 1
MULES: Solving for alpha.steam
MULES: Solving for alpha.water
MULES: Correcting alpha.steam
MULES: Correcting alpha.water
steam fraction, min, max = 0.9900755202 0.9900755202 0.9900755202
water fraction, min, max = 0.009924479762 0.009924479762 0.009924479762
Phase-sum volume fraction, min, max = 1 1 1
Constructing momentum equations
diagonal:  Solving for e.steam, Initial residual = 0, Final residual = 0, No Iterations 0
diagonal:  Solving for e.water, Initial residual = 0, Final residual = 0, No Iterations 0
steam min/max T 390.4918249 - 390.4918249
water min/max T 375.9967048 - 375.9967048
heatTransferLimitedPhaseChange: phaseChange
    min/mean/max Tsat = 372.76/372.76/372.76
    min/mean/max mDot = -1.812248266/-1.812248266/-1.812248266
diagonal:  Solving for p_rgh, Initial residual = 0, Final residual = 0, No Iterations 0
PIMPLE: Iteration 3
heatTransferLimitedPhaseChange: phaseChange
    min/mean/max Tsat = 372.76/372.76/372.76
    min/mean/max mDot = -1.812248632/-1.812248632/-1.812248632
MULES: Solving for alpha.steam
MULES: Solving for alpha.water
MULES: Correcting alpha.steam
MULES: Correcting alpha.water
steam fraction, min, max = 0.9900696553 0.9900696553 0.9900696553
water fraction, min, max = 0.009930344666 0.009930344666 0.009930344666
Phase-sum volume fraction, min, max = 1 1 1
MULES: Solving for alpha.steam
MULES: Solving for alpha.water
MULES: Correcting alpha.steam
MULES: Correcting alpha.water
steam fraction, min, max = 0.9900725972 0.9900725972 0.9900725972
water fraction, min, max = 0.009927402794 0.009927402794 0.009927402794
Phase-sum volume fraction, min, max = 1 1 1
MULES: Solving for alpha.steam
MULES: Solving for alpha.water
MULES: Correcting alpha.steam
MULES: Correcting alpha.water
steam fraction, min, max = 0.9900755382 0.9900755382 0.9900755382
water fraction, min, max = 0.009924461792 0.009924461792 0.009924461792
Phase-sum volume fraction, min, max = 1 1 1
Constructing momentum equations
diagonal:  Solving for e.steam, Initial residual = 0, Final residual = 0, No Iterations 0
diagonal:  Solving for e.water, Initial residual = 0, Final residual = 0, No Iterations 0
steam min/max T 390.4945762 - 390.4945762
water min/max T 375.9966554 - 375.9966554
heatTransferLimitedPhaseChange: phaseChange
    min/mean/max Tsat = 372.76/372.76/372.76
    min/mean/max mDot = -1.812224776/-1.812224776/-1.812224776
diagonal:  Solving for p_rgh, Initial residual = 0, Final residual = 0, No Iterations 0
PIMPLE: Iteration 4
heatTransferLimitedPhaseChange: phaseChange
    min/mean/max Tsat = 372.76/372.76/372.76
    min/mean/max mDot = -1.812224776/-1.812224776/-1.812224776
MULES: Solving for alpha.steam
MULES: Solving for alpha.water
MULES: Correcting alpha.steam
MULES: Correcting alpha.water
steam fraction, min, max = 0.9900696553 0.9900696553 0.9900696553
water fraction, min, max = 0.009930344699 0.009930344699 0.009930344699
Phase-sum volume fraction, min, max = 1 1 1
MULES: Solving for alpha.steam
MULES: Solving for alpha.water
MULES: Correcting alpha.steam
MULES: Correcting alpha.water
steam fraction, min, max = 0.9900725971 0.9900725971 0.9900725971
water fraction, min, max = 0.009927402859 0.009927402859 0.009927402859
Phase-sum volume fraction, min, max = 1 1 1
MULES: Solving for alpha.steam
MULES: Solving for alpha.water
MULES: Correcting alpha.steam
MULES: Correcting alpha.water
steam fraction, min, max = 0.9900755381 0.9900755381 0.9900755381
water fraction, min, max = 0.009924461891 0.009924461891 0.009924461891
Phase-sum volume fraction, min, max = 1 1 1
Constructing momentum equations
diagonal:  Solving for e.steam, Initial residual = 0, Final residual = 0, No Iterations 0
diagonal:  Solving for e.water, Initial residual = 0, Final residual = 0, No Iterations 0
steam min/max T 390.4945589 - 390.4945589
water min/max T 375.9966561 - 375.9966561
heatTransferLimitedPhaseChange: phaseChange
    min/mean/max Tsat = 372.76/372.76/372.76
    min/mean/max mDot = -1.812225146/-1.812225146/-1.812225146
diagonal:  Solving for p_rgh, Initial residual = 0, Final residual = 0, No Iterations 0
PIMPLE: Iteration 5
heatTransferLimitedPhaseChange: phaseChange
    min/mean/max Tsat = 372.76/372.76/372.76
    min/mean/max mDot = -1.812225146/-1.812225146/-1.812225146
MULES: Solving for alpha.steam
MULES: Solving for alpha.water
MULES: Correcting alpha.steam
MULES: Correcting alpha.water
steam fraction, min, max = 0.9900696553 0.9900696553 0.9900696553
water fraction, min, max = 0.009930344699 0.009930344699 0.009930344699
Phase-sum volume fraction, min, max = 1 1 1
MULES: Solving for alpha.steam
MULES: Solving for alpha.water
MULES: Correcting alpha.steam
MULES: Correcting alpha.water
steam fraction, min, max = 0.9900725971 0.9900725971 0.9900725971
water fraction, min, max = 0.009927402858 0.009927402858 0.009927402858
Phase-sum volume fraction, min, max = 1 1 1
MULES: Solving for alpha.steam
MULES: Solving for alpha.water
MULES: Correcting alpha.steam
MULES: Correcting alpha.water
steam fraction, min, max = 0.9900755381 0.9900755381 0.9900755381
water fraction, min, max = 0.009924461889 0.009924461889 0.009924461889
Phase-sum volume fraction, min, max = 1 1 1
Constructing momentum equations
diagonal:  Solving for e.steam, Initial residual = 0, Final residual = 0, No Iterations 0
diagonal:  Solving for e.water, Initial residual = 0, Final residual = 0, No Iterations 0
steam min/max T 390.4945592 - 390.4945592
water min/max T 375.9966561 - 375.9966561
heatTransferLimitedPhaseChange: phaseChange
    min/mean/max Tsat = 372.76/372.76/372.76
    min/mean/max mDot = -1.812225145/-1.812225145/-1.812225145
diagonal:  Solving for p_rgh, Initial residual = 0, Final residual = 0, No Iterations 0
ExecutionTime = 0.263729 s  ClockTime = 14 s

Courant Number mean: 0 max: 0
Time = 0.035s

PIMPLE: Iteration 1
heatTransferLimitedPhaseChange: phaseChange
    min/mean/max Tsat = 372.76/372.76/372.76
    min/mean/max mDot = -1.812225145/-1.812225145/-1.812225145
MULES: Solving for alpha.steam
MULES: Solving for alpha.water
MULES: Correcting alpha.steam
MULES: Correcting alpha.water
steam fraction, min, max = 0.9900784782 0.9900784782 0.9900784782
water fraction, min, max = 0.009921521791 0.009921521791 0.009921521791
Phase-sum volume fraction, min, max = 1 1 1
MULES: Solving for alpha.steam
MULES: Solving for alpha.water
MULES: Correcting alpha.steam
MULES: Correcting alpha.water
steam fraction, min, max = 0.9900814174 0.9900814174 0.9900814174
water fraction, min, max = 0.009918582564 0.009918582564 0.009918582564
Phase-sum volume fraction, min, max = 1 1 1
MULES: Solving for alpha.steam
MULES: Solving for alpha.water
MULES: Correcting alpha.steam
MULES: Correcting alpha.water
steam fraction, min, max = 0.9900843558 0.9900843558 0.9900843558
water fraction, min, max = 0.009915644208 0.009915644208 0.009915644208
Phase-sum volume fraction, min, max = 1 1 1
Constructing momentum equations
diagonal:  Solving for e.steam, Initial residual = 0, Final residual = 0, No Iterations 0
diagonal:  Solving for e.water, Initial residual = 0, Final residual = 0, No Iterations 0
steam min/max T 389.8065625 - 389.8065625
water min/max T 375.5894286 - 375.5894286
heatTransferLimitedPhaseChange: phaseChange
    min/mean/max Tsat = 372.76/372.76/372.76
    min/mean/max mDot = -1.58642917/-1.58642917/-1.58642917
diagonal:  Solving for p_rgh, Initial residual = 0, Final residual = 0, No Iterations 0
PIMPLE: Iteration 2
heatTransferLimitedPhaseChange: phaseChange
    min/mean/max Tsat = 372.76/372.76/372.76
    min/mean/max mDot = -1.586430015/-1.586430015/-1.586430015
MULES: Solving for alpha.steam
MULES: Solving for alpha.water
MULES: Correcting alpha.steam
MULES: Correcting alpha.water
steam fraction, min, max = 0.9900781143 0.9900781143 0.9900781143
water fraction, min, max = 0.009921885732 0.009921885732 0.009921885732
Phase-sum volume fraction, min, max = 1 1 1
MULES: Solving for alpha.steam
MULES: Solving for alpha.water
MULES: Correcting alpha.steam
MULES: Correcting alpha.water
steam fraction, min, max = 0.9900806898 0.9900806898 0.9900806898
water fraction, min, max = 0.009919310244 0.009919310244 0.009919310244
Phase-sum volume fraction, min, max = 1 1 1
MULES: Solving for alpha.steam
MULES: Solving for alpha.water
MULES: Correcting alpha.steam
MULES: Correcting alpha.water
steam fraction, min, max = 0.9900832646 0.9900832646 0.9900832646
water fraction, min, max = 0.009916735425 0.009916735425 0.009916735425
Phase-sum volume fraction, min, max = 1 1 1
Constructing momentum equations
diagonal:  Solving for e.steam, Initial residual = 0, Final residual = 0, No Iterations 0
diagonal:  Solving for e.water, Initial residual = 0, Final residual = 0, No Iterations 0
steam min/max T 391.1566928 - 391.1566928
water min/max T 375.5895028 - 375.5895028
heatTransferLimitedPhaseChange: phaseChange
    min/mean/max Tsat = 372.76/372.76/372.76
    min/mean/max mDot = -1.589813174/-1.589813174/-1.589813174
diagonal:  Solving for p_rgh, Initial residual = 0, Final residual = 0, No Iterations 0
PIMPLE: Iteration 3
heatTransferLimitedPhaseChange: phaseChange
    min/mean/max Tsat = 372.76/372.76/372.76
    min/mean/max mDot = -1.589813457/-1.589813457/-1.589813457
MULES: Solving for alpha.steam
MULES: Solving for alpha.water
MULES: Correcting alpha.steam
MULES: Correcting alpha.water
steam fraction, min, max = 0.9900781195 0.9900781195 0.9900781195
water fraction, min, max = 0.009921880523 0.009921880523 0.009921880523
Phase-sum volume fraction, min, max = 1 1 1
MULES: Solving for alpha.steam
MULES: Solving for alpha.water
MULES: Correcting alpha.steam
MULES: Correcting alpha.water
steam fraction, min, max = 0.9900807002 0.9900807002 0.9900807002
water fraction, min, max = 0.009919299827 0.009919299827 0.009919299827
Phase-sum volume fraction, min, max = 1 1 1
MULES: Solving for alpha.steam
MULES: Solving for alpha.water
MULES: Correcting alpha.steam
MULES: Correcting alpha.water
steam fraction, min, max = 0.9900832802 0.9900832802 0.9900832802
water fraction, min, max = 0.009916719804 0.009916719804 0.009916719804
Phase-sum volume fraction, min, max = 1 1 1
Constructing momentum equations
diagonal:  Solving for e.steam, Initial residual = 0, Final residual = 0, No Iterations 0
diagonal:  Solving for e.water, Initial residual = 0, Final residual = 0, No Iterations 0
steam min/max T 391.1590106 - 391.1590106
water min/max T 375.5894647 - 375.5894647
heatTransferLimitedPhaseChange: phaseChange
    min/mean/max Tsat = 372.76/372.76/372.76
    min/mean/max mDot = -1.589795602/-1.589795602/-1.589795602
diagonal:  Solving for p_rgh, Initial residual = 0, Final residual = 0, No Iterations 0
PIMPLE: Iteration 4
heatTransferLimitedPhaseChange: phaseChange
    min/mean/max Tsat = 372.76/372.76/372.76
    min/mean/max mDot = -1.589795603/-1.589795603/-1.589795603
MULES: Solving for alpha.steam
MULES: Solving for alpha.water
MULES: Correcting alpha.steam
MULES: Correcting alpha.water
steam fraction, min, max = 0.9900781195 0.9900781195 0.9900781195
water fraction, min, max = 0.009921880547 0.009921880547 0.009921880547
Phase-sum volume fraction, min, max = 1 1 1
MULES: Solving for alpha.steam
MULES: Solving for alpha.water
MULES: Correcting alpha.steam
MULES: Correcting alpha.water
steam fraction, min, max = 0.9900807001 0.9900807001 0.9900807001
water fraction, min, max = 0.009919299876 0.009919299876 0.009919299876
Phase-sum volume fraction, min, max = 1 1 1
MULES: Solving for alpha.steam
MULES: Solving for alpha.water
MULES: Correcting alpha.steam
MULES: Correcting alpha.water
steam fraction, min, max = 0.9900832801 0.9900832801 0.9900832801
water fraction, min, max = 0.009916719877 0.009916719877 0.009916719877
Phase-sum volume fraction, min, max = 1 1 1
Constructing momentum equations
diagonal:  Solving for e.steam, Initial residual = 0, Final residual = 0, No Iterations 0
diagonal:  Solving for e.water, Initial residual = 0, Final residual = 0, No Iterations 0
steam min/max T 391.1589981 - 391.1589981
water min/max T 375.5894653 - 375.5894653
heatTransferLimitedPhaseChange: phaseChange
    min/mean/max Tsat = 372.76/372.76/372.76
    min/mean/max mDot = -1.589795886/-1.589795886/-1.589795886
diagonal:  Solving for p_rgh, Initial residual = 0, Final residual = 0, No Iterations 0
PIMPLE: Iteration 5
heatTransferLimitedPhaseChange: phaseChange
    min/mean/max Tsat = 372.76/372.76/372.76
    min/mean/max mDot = -1.589795886/-1.589795886/-1.589795886
MULES: Solving for alpha.steam
MULES: Solving for alpha.water
MULES: Correcting alpha.steam
MULES: Correcting alpha.water
steam fraction, min, max = 0.9900781195 0.9900781195 0.9900781195
water fraction, min, max = 0.009921880547 0.009921880547 0.009921880547
Phase-sum volume fraction, min, max = 1 1 1
MULES: Solving for alpha.steam
MULES: Solving for alpha.water
MULES: Correcting alpha.steam
MULES: Correcting alpha.water
steam fraction, min, max = 0.9900807001 0.9900807001 0.9900807001
water fraction, min, max = 0.009919299876 0.009919299876 0.009919299876
Phase-sum volume fraction, min, max = 1 1 1
MULES: Solving for alpha.steam
MULES: Solving for alpha.water
MULES: Correcting alpha.steam
MULES: Correcting alpha.water
steam fraction, min, max = 0.9900832801 0.9900832801 0.9900832801
water fraction, min, max = 0.009916719876 0.009916719876 0.009916719876
Phase-sum volume fraction, min, max = 1 1 1
Constructing momentum equations
diagonal:  Solving for e.steam, Initial residual = 0, Final residual = 0, No Iterations 0
diagonal:  Solving for e.water, Initial residual = 0, Final residual = 0, No Iterations 0
steam min/max T 391.1589983 - 391.1589983
water min/max T 375.5894653 - 375.5894653
heatTransferLimitedPhaseChange: phaseChange
    min/mean/max Tsat = 372.76/372.76/372.76
    min/mean/max mDot = -1.589795885/-1.589795885/-1.589795885
diagonal:  Solving for p_rgh, Initial residual = 0, Final residual = 0, No Iterations 0
ExecutionTime = 0.279849 s  ClockTime = 14 s

Courant Number mean: 0 max: 0
Time = 0.04s

PIMPLE: Iteration 1
heatTransferLimitedPhaseChange: phaseChange
    min/mean/max Tsat = 372.76/372.76/372.76
    min/mean/max mDot = -1.589795885/-1.589795885/-1.589795885
MULES: Solving for alpha.steam
MULES: Solving for alpha.water
MULES: Correcting alpha.steam
MULES: Correcting alpha.water
steam fraction, min, max = 0.9900858595 0.9900858595 0.9900858595
water fraction, min, max = 0.009914140547 0.009914140547 0.009914140547
Phase-sum volume fraction, min, max = 1 1 1
MULES: Solving for alpha.steam
MULES: Solving for alpha.water
MULES: Correcting alpha.steam
MULES: Correcting alpha.water
steam fraction, min, max = 0.9900884381 0.9900884381 0.9900884381
water fraction, min, max = 0.009911561889 0.009911561889 0.009911561889
Phase-sum volume fraction, min, max = 1 1 1
MULES: Solving for alpha.steam
MULES: Solving for alpha.water
MULES: Correcting alpha.steam
MULES: Correcting alpha.water
steam fraction, min, max = 0.9900910161 0.9900910161 0.9900910161
water fraction, min, max = 0.009908983902 0.009908983902 0.009908983902
Phase-sum volume fraction, min, max = 1 1 1
Constructing momentum equations
diagonal:  Solving for e.steam, Initial residual = 0, Final residual = 0, No Iterations 0
diagonal:  Solving for e.water, Initial residual = 0, Final residual = 0, No Iterations 0
steam min/max T 390.476585 - 390.476585
water min/max T 375.233339 - 375.233339
heatTransferLimitedPhaseChange: phaseChange
    min/mean/max Tsat = 372.76/372.76/372.76
    min/mean/max mDot = -1.392444206/-1.392444206/-1.392444206
diagonal:  Solving for p_rgh, Initial residual = 0, Final residual = 0, No Iterations 0
PIMPLE: Iteration 2
heatTransferLimitedPhaseChange: phaseChange
    min/mean/max Tsat = 372.76/372.76/372.76
    min/mean/max mDot = -1.392444843/-1.392444843/-1.392444843
MULES: Solving for alpha.steam
MULES: Solving for alpha.water
MULES: Correcting alpha.steam
MULES: Correcting alpha.water
steam fraction, min, max = 0.9900855411 0.9900855411 0.9900855411
water fraction, min, max = 0.009914458899 0.009914458899 0.009914458899
Phase-sum volume fraction, min, max = 1 1 1
MULES: Solving for alpha.steam
MULES: Solving for alpha.water
MULES: Correcting alpha.steam
MULES: Correcting alpha.water
steam fraction, min, max = 0.9900878016 0.9900878016 0.9900878016
water fraction, min, max = 0.009912198439 0.009912198439 0.009912198439
Phase-sum volume fraction, min, max = 1 1 1
MULES: Solving for alpha.steam
MULES: Solving for alpha.water
MULES: Correcting alpha.steam
MULES: Correcting alpha.water
steam fraction, min, max = 0.9900900615 0.9900900615 0.9900900615
water fraction, min, max = 0.009909938493 0.009909938493 0.009909938493
Phase-sum volume fraction, min, max = 1 1 1
Constructing momentum equations
diagonal:  Solving for e.steam, Initial residual = 0, Final residual = 0, No Iterations 0
diagonal:  Solving for e.water, Initial residual = 0, Final residual = 0, No Iterations 0
steam min/max T 391.6539045 - 391.6539045
water min/max T 375.2333977 - 375.2333977
heatTransferLimitedPhaseChange: phaseChange
    min/mean/max Tsat = 372.76/372.76/372.76
    min/mean/max mDot = -1.395371671/-1.395371671/-1.395371671
diagonal:  Solving for p_rgh, Initial residual = 0, Final residual = 0, No Iterations 0
PIMPLE: Iteration 3
heatTransferLimitedPhaseChange: phaseChange
    min/mean/max Tsat = 372.76/372.76/372.76
    min/mean/max mDot = -1.395371889/-1.395371889/-1.395371889
MULES: Solving for alpha.steam
MULES: Solving for alpha.water
MULES: Correcting alpha.steam
MULES: Correcting alpha.water
steam fraction, min, max = 0.9900855456 0.9900855456 0.9900855456
water fraction, min, max = 0.009914454365 0.009914454365 0.009914454365
Phase-sum volume fraction, min, max = 1 1 1
MULES: Solving for alpha.steam
MULES: Solving for alpha.water
MULES: Correcting alpha.steam
MULES: Correcting alpha.water
steam fraction, min, max = 0.9900878106 0.9900878106 0.9900878106
water fraction, min, max = 0.009912189372 0.009912189372 0.009912189372
Phase-sum volume fraction, min, max = 1 1 1
MULES: Solving for alpha.steam
MULES: Solving for alpha.water
MULES: Correcting alpha.steam
MULES: Correcting alpha.water
steam fraction, min, max = 0.9900900751 0.9900900751 0.9900900751
water fraction, min, max = 0.009909924897 0.009909924897 0.009909924897
Phase-sum volume fraction, min, max = 1 1 1
Constructing momentum equations
diagonal:  Solving for e.steam, Initial residual = 0, Final residual = 0, No Iterations 0
diagonal:  Solving for e.water, Initial residual = 0, Final residual = 0, No Iterations 0
steam min/max T 391.6558687 - 391.6558687
water min/max T 375.2333684 - 375.2333684
heatTransferLimitedPhaseChange: phaseChange
    min/mean/max Tsat = 372.76/372.76/372.76
    min/mean/max mDot = -1.395358591/-1.395358591/-1.395358591
diagonal:  Solving for p_rgh, Initial residual = 0, Final residual = 0, No Iterations 0
PIMPLE: Iteration 4
heatTransferLimitedPhaseChange: phaseChange
    min/mean/max Tsat = 372.76/372.76/372.76
    min/mean/max mDot = -1.395358591/-1.395358591/-1.395358591
MULES: Solving for alpha.steam
MULES: Solving for alpha.water
MULES: Correcting alpha.steam
MULES: Correcting alpha.water
steam fraction, min, max = 0.9900855456 0.9900855456 0.9900855456
water fraction, min, max = 0.009914454383 0.009914454383 0.009914454383
Phase-sum volume fraction, min, max = 1 1 1
MULES: Solving for alpha.steam
MULES: Solving for alpha.water
MULES: Correcting alpha.steam
MULES: Correcting alpha.water
steam fraction, min, max = 0.9900878106 0.9900878106 0.9900878106
water fraction, min, max = 0.009912189409 0.009912189409 0.009912189409
Phase-sum volume fraction, min, max = 1 1 1
MULES: Solving for alpha.steam
MULES: Solving for alpha.water
MULES: Correcting alpha.steam
MULES: Correcting alpha.water
steam fraction, min, max = 0.990090075 0.990090075 0.990090075
water fraction, min, max = 0.009909924951 0.009909924951 0.009909924951
Phase-sum volume fraction, min, max = 1 1 1
Constructing momentum equations
diagonal:  Solving for e.steam, Initial residual = 0, Final residual = 0, No Iterations 0
diagonal:  Solving for e.water, Initial residual = 0, Final residual = 0, No Iterations 0
steam min/max T 391.6558596 - 391.6558596
water min/max T 375.2333689 - 375.2333689
heatTransferLimitedPhaseChange: phaseChange
    min/mean/max Tsat = 372.76/372.76/372.76
    min/mean/max mDot = -1.395358809/-1.395358809/-1.395358809
diagonal:  Solving for p_rgh, Initial residual = 0, Final residual = 0, No Iterations 0
PIMPLE: Iteration 5
heatTransferLimitedPhaseChange: phaseChange
    min/mean/max Tsat = 372.76/372.76/372.76
    min/mean/max mDot = -1.395358809/-1.395358809/-1.395358809
MULES: Solving for alpha.steam
MULES: Solving for alpha.water
MULES: Correcting alpha.steam
MULES: Correcting alpha.water
steam fraction, min, max = 0.9900855456 0.9900855456 0.9900855456
water fraction, min, max = 0.009914454383 0.009914454383 0.009914454383
Phase-sum volume fraction, min, max = 1 1 1
MULES: Solving for alpha.steam
MULES: Solving for alpha.water
MULES: Correcting alpha.steam
MULES: Correcting alpha.water
steam fraction, min, max = 0.9900878106 0.9900878106 0.9900878106
water fraction, min, max = 0.009912189408 0.009912189408 0.009912189408
Phase-sum volume fraction, min, max = 1 1 1
MULES: Solving for alpha.steam
MULES: Solving for alpha.water
MULES: Correcting alpha.steam
MULES: Correcting alpha.water
[...]
heatTransferLimitedPhaseChange: phaseChange
    min/mean/max Tsat = 372.76/372.76/372.76
    min/mean/max mDot = -0.001124058107/-0.001124058107/-0.001124058107
diagonal:  Solving for p_rgh, Initial residual = 0, Final residual = 0, No Iterations 0
PIMPLE: Iteration 4
heatTransferLimitedPhaseChange: phaseChange
    min/mean/max Tsat = 372.76/372.76/372.76
    min/mean/max mDot = -0.001124058107/-0.001124058107/-0.001124058107
MULES: Solving for alpha.steam
MULES: Solving for alpha.water
MULES: Correcting alpha.steam
MULES: Correcting alpha.water
steam fraction, min, max = 0.9901484882 0.9901484882 0.9901484882
water fraction, min, max = 0.009851511844 0.009851511844 0.009851511844
Phase-sum volume fraction, min, max = 1 1 1
MULES: Solving for alpha.steam
MULES: Solving for alpha.water
MULES: Correcting alpha.steam
MULES: Correcting alpha.water
steam fraction, min, max = 0.99014849 0.99014849 0.99014849
water fraction, min, max = 0.009851510019 0.009851510019 0.009851510019
Phase-sum volume fraction, min, max = 1 1 1
MULES: Solving for alpha.steam
MULES: Solving for alpha.water
MULES: Correcting alpha.steam
MULES: Correcting alpha.water
steam fraction, min, max = 0.9901484918 0.9901484918 0.9901484918
water fraction, min, max = 0.009851508195 0.009851508195 0.009851508195
Phase-sum volume fraction, min, max = 1 1 1
Constructing momentum equations
diagonal:  Solving for e.steam, Initial residual = 0, Final residual = 0, No Iterations 0
diagonal:  Solving for e.water, Initial residual = 0, Final residual = 0, No Iterations 0
steam min/max T 373.2422146 - 373.2422146
water min/max T 372.76 - 372.76
heatTransferLimitedPhaseChange: phaseChange
    min/mean/max Tsat = 372.76/372.76/372.76
    min/mean/max mDot = -0.001124058112/-0.001124058112/-0.001124058112
diagonal:  Solving for p_rgh, Initial residual = 0, Final residual = 0, No Iterations 0
PIMPLE: Iteration 5
heatTransferLimitedPhaseChange: phaseChange
    min/mean/max Tsat = 372.76/372.76/372.76
    min/mean/max mDot = -0.001124058112/-0.001124058112/-0.001124058112
MULES: Solving for alpha.steam
MULES: Solving for alpha.water
MULES: Correcting alpha.steam
MULES: Correcting alpha.water
steam fraction, min, max = 0.9901484882 0.9901484882 0.9901484882
water fraction, min, max = 0.009851511844 0.009851511844 0.009851511844
Phase-sum volume fraction, min, max = 1 1 1
MULES: Solving for alpha.steam
MULES: Solving for alpha.water
MULES: Correcting alpha.steam
MULES: Correcting alpha.water
steam fraction, min, max = 0.99014849 0.99014849 0.99014849
water fraction, min, max = 0.009851510019 0.009851510019 0.009851510019
Phase-sum volume fraction, min, max = 1 1 1
MULES: Solving for alpha.steam
MULES: Solving for alpha.water
MULES: Correcting alpha.steam
MULES: Correcting alpha.water
steam fraction, min, max = 0.9901484918 0.9901484918 0.9901484918
water fraction, min, max = 0.009851508195 0.009851508195 0.009851508195
Phase-sum volume fraction, min, max = 1 1 1
Constructing momentum equations
diagonal:  Solving for e.steam, Initial residual = 0, Final residual = 0, No Iterations 0
diagonal:  Solving for e.water, Initial residual = 0, Final residual = 0, No Iterations 0
steam min/max T 373.2422146 - 373.2422146
water min/max T 372.76 - 372.76
heatTransferLimitedPhaseChange: phaseChange
    min/mean/max Tsat = 372.76/372.76/372.76
    min/mean/max mDot = -0.001124058112/-0.001124058112/-0.001124058112
diagonal:  Solving for p_rgh, Initial residual = 0, Final residual = 0, No Iterations 0
ExecutionTime = 3.308732 s  ClockTime = 17 s

Courant Number mean: 0 max: 0
Time = 0.995s

PIMPLE: Iteration 1
heatTransferLimitedPhaseChange: phaseChange
    min/mean/max Tsat = 372.76/372.76/372.76
    min/mean/max mDot = -0.001124058112/-0.001124058112/-0.001124058112
MULES: Solving for alpha.steam
MULES: Solving for alpha.water
MULES: Correcting alpha.steam
MULES: Correcting alpha.water
steam fraction, min, max = 0.9901484936 0.9901484936 0.9901484936
water fraction, min, max = 0.009851506371 0.009851506371 0.009851506371
Phase-sum volume fraction, min, max = 1 1 1
MULES: Solving for alpha.steam
MULES: Solving for alpha.water
MULES: Correcting alpha.steam
MULES: Correcting alpha.water
steam fraction, min, max = 0.9901484955 0.9901484955 0.9901484955
water fraction, min, max = 0.009851504547 0.009851504547 0.009851504547
Phase-sum volume fraction, min, max = 1 1 1
MULES: Solving for alpha.steam
MULES: Solving for alpha.water
MULES: Correcting alpha.steam
MULES: Correcting alpha.water
steam fraction, min, max = 0.9901484973 0.9901484973 0.9901484973
water fraction, min, max = 0.009851502723 0.009851502723 0.009851502723
Phase-sum volume fraction, min, max = 1 1 1
Constructing momentum equations
diagonal:  Solving for e.steam, Initial residual = 0, Final residual = 0, No Iterations 0
diagonal:  Solving for e.water, Initial residual = 0, Final residual = 0, No Iterations 0
steam min/max T 373.2315078 - 373.2315078
water min/max T 372.76 - 372.76
heatTransferLimitedPhaseChange: phaseChange
    min/mean/max Tsat = 372.76/372.76/372.76
    min/mean/max mDot = -0.001099099462/-0.001099099462/-0.001099099462
diagonal:  Solving for p_rgh, Initial residual = 0, Final residual = 0, No Iterations 0
PIMPLE: Iteration 2
heatTransferLimitedPhaseChange: phaseChange
    min/mean/max Tsat = 372.76/372.76/372.76
    min/mean/max mDot = -0.001099099461/-0.001099099461/-0.001099099461
MULES: Solving for alpha.steam
MULES: Solving for alpha.water
MULES: Correcting alpha.steam
MULES: Correcting alpha.water
steam fraction, min, max = 0.9901484936 0.9901484936 0.9901484936
water fraction, min, max = 0.009851506411 0.009851506411 0.009851506411
Phase-sum volume fraction, min, max = 1 1 1
MULES: Solving for alpha.steam
MULES: Solving for alpha.water
MULES: Correcting alpha.steam
MULES: Correcting alpha.water
steam fraction, min, max = 0.9901484954 0.9901484954 0.9901484954
water fraction, min, max = 0.009851504628 0.009851504628 0.009851504628
Phase-sum volume fraction, min, max = 1 1 1
MULES: Solving for alpha.steam
MULES: Solving for alpha.water
MULES: Correcting alpha.steam
MULES: Correcting alpha.water
steam fraction, min, max = 0.9901484972 0.9901484972 0.9901484972
water fraction, min, max = 0.009851502844 0.009851502844 0.009851502844
Phase-sum volume fraction, min, max = 1 1 1
Constructing momentum equations
diagonal:  Solving for e.steam, Initial residual = 0, Final residual = 0, No Iterations 0
diagonal:  Solving for e.water, Initial residual = 0, Final residual = 0, No Iterations 0
steam min/max T 373.2323058 - 373.2323058
water min/max T 372.76 - 372.76
heatTransferLimitedPhaseChange: phaseChange
    min/mean/max Tsat = 372.76/372.76/372.76
    min/mean/max mDot = -0.001100959782/-0.001100959782/-0.001100959782
diagonal:  Solving for p_rgh, Initial residual = 0, Final residual = 0, No Iterations 0
PIMPLE: Iteration 3
heatTransferLimitedPhaseChange: phaseChange
    min/mean/max Tsat = 372.76/372.76/372.76
    min/mean/max mDot = -0.001100959782/-0.001100959782/-0.001100959782
MULES: Solving for alpha.steam
MULES: Solving for alpha.water
MULES: Correcting alpha.steam
MULES: Correcting alpha.water
steam fraction, min, max = 0.9901484936 0.9901484936 0.9901484936
water fraction, min, max = 0.009851506408 0.009851506408 0.009851506408
Phase-sum volume fraction, min, max = 1 1 1
MULES: Solving for alpha.steam
MULES: Solving for alpha.water
MULES: Correcting alpha.steam
MULES: Correcting alpha.water
steam fraction, min, max = 0.9901484954 0.9901484954 0.9901484954
water fraction, min, max = 0.009851504622 0.009851504622 0.009851504622
Phase-sum volume fraction, min, max = 1 1 1
MULES: Solving for alpha.steam
MULES: Solving for alpha.water
MULES: Correcting alpha.steam
MULES: Correcting alpha.water
steam fraction, min, max = 0.9901484972 0.9901484972 0.9901484972
water fraction, min, max = 0.009851502835 0.009851502835 0.009851502835
Phase-sum volume fraction, min, max = 1 1 1
Constructing momentum equations
diagonal:  Solving for e.steam, Initial residual = 0, Final residual = 0, No Iterations 0
diagonal:  Solving for e.water, Initial residual = 0, Final residual = 0, No Iterations 0
steam min/max T 373.2323072 - 373.2323072
water min/max T 372.76 - 372.76
heatTransferLimitedPhaseChange: phaseChange
    min/mean/max Tsat = 372.76/372.76/372.76
    min/mean/max mDot = -0.001100962909/-0.001100962909/-0.001100962909
diagonal:  Solving for p_rgh, Initial residual = 0, Final residual = 0, No Iterations 0
PIMPLE: Iteration 4
heatTransferLimitedPhaseChange: phaseChange
    min/mean/max Tsat = 372.76/372.76/372.76
    min/mean/max mDot = -0.001100962909/-0.001100962909/-0.001100962909
MULES: Solving for alpha.steam
MULES: Solving for alpha.water
MULES: Correcting alpha.steam
MULES: Correcting alpha.water
steam fraction, min, max = 0.9901484936 0.9901484936 0.9901484936
water fraction, min, max = 0.009851506408 0.009851506408 0.009851506408
Phase-sum volume fraction, min, max = 1 1 1
MULES: Solving for alpha.steam
MULES: Solving for alpha.water
MULES: Correcting alpha.steam
MULES: Correcting alpha.water
steam fraction, min, max = 0.9901484954 0.9901484954 0.9901484954
water fraction, min, max = 0.009851504622 0.009851504622 0.009851504622
Phase-sum volume fraction, min, max = 1 1 1
MULES: Solving for alpha.steam
MULES: Solving for alpha.water
MULES: Correcting alpha.steam
MULES: Correcting alpha.water
steam fraction, min, max = 0.9901484972 0.9901484972 0.9901484972
water fraction, min, max = 0.009851502835 0.009851502835 0.009851502835
Phase-sum volume fraction, min, max = 1 1 1
Constructing momentum equations
diagonal:  Solving for e.steam, Initial residual = 0, Final residual = 0, No Iterations 0
diagonal:  Solving for e.water, Initial residual = 0, Final residual = 0, No Iterations 0
steam min/max T 373.2323072 - 373.2323072
water min/max T 372.76 - 372.76
heatTransferLimitedPhaseChange: phaseChange
    min/mean/max Tsat = 372.76/372.76/372.76
    min/mean/max mDot = -0.001100962915/-0.001100962915/-0.001100962915
diagonal:  Solving for p_rgh, Initial residual = 0, Final residual = 0, No Iterations 0
PIMPLE: Iteration 5
heatTransferLimitedPhaseChange: phaseChange
    min/mean/max Tsat = 372.76/372.76/372.76
    min/mean/max mDot = -0.001100962915/-0.001100962915/-0.001100962915
MULES: Solving for alpha.steam
MULES: Solving for alpha.water
MULES: Correcting alpha.steam
MULES: Correcting alpha.water
steam fraction, min, max = 0.9901484936 0.9901484936 0.9901484936
water fraction, min, max = 0.009851506408 0.009851506408 0.009851506408
Phase-sum volume fraction, min, max = 1 1 1
MULES: Solving for alpha.steam
MULES: Solving for alpha.water
MULES: Correcting alpha.steam
MULES: Correcting alpha.water
steam fraction, min, max = 0.9901484954 0.9901484954 0.9901484954
water fraction, min, max = 0.009851504622 0.009851504622 0.009851504622
Phase-sum volume fraction, min, max = 1 1 1
MULES: Solving for alpha.steam
MULES: Solving for alpha.water
MULES: Correcting alpha.steam
MULES: Correcting alpha.water
steam fraction, min, max = 0.9901484972 0.9901484972 0.9901484972
water fraction, min, max = 0.009851502835 0.009851502835 0.009851502835
Phase-sum volume fraction, min, max = 1 1 1
Constructing momentum equations
diagonal:  Solving for e.steam, Initial residual = 0, Final residual = 0, No Iterations 0
diagonal:  Solving for e.water, Initial residual = 0, Final residual = 0, No Iterations 0
steam min/max T 373.2323072 - 373.2323072
water min/max T 372.76 - 372.76
heatTransferLimitedPhaseChange: phaseChange
    min/mean/max Tsat = 372.76/372.76/372.76
    min/mean/max mDot = -0.001100962915/-0.001100962915/-0.001100962915
diagonal:  Solving for p_rgh, Initial residual = 0, Final residual = 0, No Iterations 0
ExecutionTime = 3.324569 s  ClockTime = 17 s

Courant Number mean: 0 max: 0
Time = 1s

PIMPLE: Iteration 1
heatTransferLimitedPhaseChange: phaseChange
    min/mean/max Tsat = 372.76/372.76/372.76
    min/mean/max mDot = -0.001100962915/-0.001100962915/-0.001100962915
MULES: Solving for alpha.steam
MULES: Solving for alpha.water
MULES: Correcting alpha.steam
MULES: Correcting alpha.water
steam fraction, min, max = 0.990148499 0.990148499 0.990148499
water fraction, min, max = 0.009851501048 0.009851501048 0.009851501048
Phase-sum volume fraction, min, max = 1 1 1
MULES: Solving for alpha.steam
MULES: Solving for alpha.water
MULES: Correcting alpha.steam
MULES: Correcting alpha.water
steam fraction, min, max = 0.9901485007 0.9901485007 0.9901485007
water fraction, min, max = 0.009851499262 0.009851499262 0.009851499262
Phase-sum volume fraction, min, max = 1 1 1
MULES: Solving for alpha.steam
MULES: Solving for alpha.water
MULES: Correcting alpha.steam
MULES: Correcting alpha.water
steam fraction, min, max = 0.9901485025 0.9901485025 0.9901485025
water fraction, min, max = 0.009851497475 0.009851497475 0.009851497475
Phase-sum volume fraction, min, max = 1 1 1
Constructing momentum equations
diagonal:  Solving for e.steam, Initial residual = 0, Final residual = 0, No Iterations 0
diagonal:  Solving for e.water, Initial residual = 0, Final residual = 0, No Iterations 0
steam min/max T 373.2218205 - 373.2218205
water min/max T 372.76 - 372.76
heatTransferLimitedPhaseChange: phaseChange
    min/mean/max Tsat = 372.76/372.76/372.76
    min/mean/max mDot = -0.001076517501/-0.001076517501/-0.001076517501
diagonal:  Solving for p_rgh, Initial residual = 0, Final residual = 0, No Iterations 0
PIMPLE: Iteration 2
heatTransferLimitedPhaseChange: phaseChange
    min/mean/max Tsat = 372.76/372.76/372.76
    min/mean/max mDot = -0.0010765175/-0.0010765175/-0.0010765175
MULES: Solving for alpha.steam
MULES: Solving for alpha.water
MULES: Correcting alpha.steam
MULES: Correcting alpha.water
steam fraction, min, max = 0.9901484989 0.9901484989 0.9901484989
water fraction, min, max = 0.009851501088 0.009851501088 0.009851501088
Phase-sum volume fraction, min, max = 1 1 1
MULES: Solving for alpha.steam
MULES: Solving for alpha.water
MULES: Correcting alpha.steam
MULES: Correcting alpha.water
steam fraction, min, max = 0.9901485007 0.9901485007 0.9901485007
water fraction, min, max = 0.009851499341 0.009851499341 0.009851499341
Phase-sum volume fraction, min, max = 1 1 1
MULES: Solving for alpha.steam
MULES: Solving for alpha.water
MULES: Correcting alpha.steam
MULES: Correcting alpha.water
steam fraction, min, max = 0.9901485024 0.9901485024 0.9901485024
water fraction, min, max = 0.009851497594 0.009851497594 0.009851497594
Phase-sum volume fraction, min, max = 1 1 1
Constructing momentum equations
diagonal:  Solving for e.steam, Initial residual = 0, Final residual = 0, No Iterations 0
diagonal:  Solving for e.water, Initial residual = 0, Final residual = 0, No Iterations 0
steam min/max T 373.2226021 - 373.2226021
water min/max T 372.76 - 372.76
heatTransferLimitedPhaseChange: phaseChange
    min/mean/max Tsat = 372.76/372.76/372.76
    min/mean/max mDot = -0.001078339529/-0.001078339529/-0.001078339529
diagonal:  Solving for p_rgh, Initial residual = 0, Final residual = 0, No Iterations 0
PIMPLE: Iteration 3
heatTransferLimitedPhaseChange: phaseChange
    min/mean/max Tsat = 372.76/372.76/372.76
    min/mean/max mDot = -0.001078339529/-0.001078339529/-0.001078339529
MULES: Solving for alpha.steam
MULES: Solving for alpha.water
MULES: Correcting alpha.steam
MULES: Correcting alpha.water
steam fraction, min, max = 0.9901484989 0.9901484989 0.9901484989
water fraction, min, max = 0.009851501085 0.009851501085 0.009851501085
Phase-sum volume fraction, min, max = 1 1 1
MULES: Solving for alpha.steam
MULES: Solving for alpha.water
MULES: Correcting alpha.steam
MULES: Correcting alpha.water
steam fraction, min, max = 0.9901485007 0.9901485007 0.9901485007
water fraction, min, max = 0.009851499335 0.009851499335 0.009851499335
Phase-sum volume fraction, min, max = 1 1 1
MULES: Solving for alpha.steam
MULES: Solving for alpha.water
MULES: Correcting alpha.steam
MULES: Correcting alpha.water
steam fraction, min, max = 0.9901485024 0.9901485024 0.9901485024
water fraction, min, max = 0.009851497585 0.009851497585 0.009851497585
Phase-sum volume fraction, min, max = 1 1 1
Constructing momentum equations
diagonal:  Solving for e.steam, Initial residual = 0, Final residual = 0, No Iterations 0
diagonal:  Solving for e.water, Initial residual = 0, Final residual = 0, No Iterations 0
steam min/max T 373.2226034 - 373.2226034
water min/max T 372.76 - 372.76
heatTransferLimitedPhaseChange: phaseChange
    min/mean/max Tsat = 372.76/372.76/372.76
    min/mean/max mDot = -0.001078342593/-0.001078342593/-0.001078342593
diagonal:  Solving for p_rgh, Initial residual = 0, Final residual = 0, No Iterations 0
PIMPLE: Iteration 4
heatTransferLimitedPhaseChange: phaseChange
    min/mean/max Tsat = 372.76/372.76/372.76
    min/mean/max mDot = -0.001078342593/-0.001078342593/-0.001078342593
MULES: Solving for alpha.steam
MULES: Solving for alpha.water
MULES: Correcting alpha.steam
MULES: Correcting alpha.water
steam fraction, min, max = 0.9901484989 0.9901484989 0.9901484989
water fraction, min, max = 0.009851501085 0.009851501085 0.009851501085
Phase-sum volume fraction, min, max = 1 1 1
MULES: Solving for alpha.steam
MULES: Solving for alpha.water
MULES: Correcting alpha.steam
MULES: Correcting alpha.water
steam fraction, min, max = 0.9901485007 0.9901485007 0.9901485007
water fraction, min, max = 0.009851499335 0.009851499335 0.009851499335
Phase-sum volume fraction, min, max = 1 1 1
MULES: Solving for alpha.steam
MULES: Solving for alpha.water
MULES: Correcting alpha.steam
MULES: Correcting alpha.water
steam fraction, min, max = 0.9901485024 0.9901485024 0.9901485024
water fraction, min, max = 0.009851497585 0.009851497585 0.009851497585
Phase-sum volume fraction, min, max = 1 1 1
Constructing momentum equations
diagonal:  Solving for e.steam, Initial residual = 0, Final residual = 0, No Iterations 0
diagonal:  Solving for e.water, Initial residual = 0, Final residual = 0, No Iterations 0
steam min/max T 373.2226034 - 373.2226034
water min/max T 372.76 - 372.76
heatTransferLimitedPhaseChange: phaseChange
    min/mean/max Tsat = 372.76/372.76/372.76
    min/mean/max mDot = -0.001078342598/-0.001078342598/-0.001078342598
diagonal:  Solving for p_rgh, Initial residual = 0, Final residual = 0, No Iterations 0
PIMPLE: Iteration 5
heatTransferLimitedPhaseChange: phaseChange
    min/mean/max Tsat = 372.76/372.76/372.76
    min/mean/max mDot = -0.001078342598/-0.001078342598/-0.001078342598
MULES: Solving for alpha.steam
MULES: Solving for alpha.water
MULES: Correcting alpha.steam
MULES: Correcting alpha.water
steam fraction, min, max = 0.9901484989 0.9901484989 0.9901484989
water fraction, min, max = 0.009851501085 0.009851501085 0.009851501085
Phase-sum volume fraction, min, max = 1 1 1
MULES: Solving for alpha.steam
MULES: Solving for alpha.water
MULES: Correcting alpha.steam
MULES: Correcting alpha.water
steam fraction, min, max = 0.9901485007 0.9901485007 0.9901485007
water fraction, min, max = 0.009851499335 0.009851499335 0.009851499335
Phase-sum volume fraction, min, max = 1 1 1
MULES: Solving for alpha.steam
MULES: Solving for alpha.water
MULES: Correcting alpha.steam
MULES: Correcting alpha.water
steam fraction, min, max = 0.9901485024 0.9901485024 0.9901485024
water fraction, min, max = 0.009851497585 0.009851497585 0.009851497585
Phase-sum volume fraction, min, max = 1 1 1
Constructing momentum equations
diagonal:  Solving for e.steam, Initial residual = 0, Final residual = 0, No Iterations 0
diagonal:  Solving for e.water, Initial residual = 0, Final residual = 0, No Iterations 0
steam min/max T 373.2226034 - 373.2226034
water min/max T 372.76 - 372.76
heatTransferLimitedPhaseChange: phaseChange
    min/mean/max Tsat = 372.76/372.76/372.76
    min/mean/max mDot = -0.001078342598/-0.001078342598/-0.001078342598
diagonal:  Solving for p_rgh, Initial residual = 0, Final residual = 0, No Iterations 0
ExecutionTime = 3.341585 s  ClockTime = 17 s

End

