/*---------------------------------------------------------------------------*\
  =========                 |
  \\      /  F ield         | OpenFOAM: The Open Source CFD Toolbox
   \\    /   O peration     | Website:  https://openfoam.org
    \\  /    A nd           | Version:  13
     \\/     M anipulation  |
\*---------------------------------------------------------------------------*/
Build  : 13-19a3d5400c8c
Exec   : foamRun -parallel
Date   : Jun 23 2026
Time   : 13:54:18
Host   : "kol-serv"
PID    : 1256782
I/O    : uncollated
Case   : /home/kol/OpenFOAM/OpenFOAM-13/test/Lagrangian/coupling
nProcs : 4
Slaves : 
3
(
"kol-serv.1256783"
"kol-serv.1256784"
"kol-serv.1256785"
)

Pstream initialised with:
    floatTransfer      : false
    nProcsSimpleSum    : 0
    commsType          : nonBlocking
    polling iterations : 0
sigFpe : Enabling floating point exception trapping (FOAM_SIGFPE).
fileModificationChecking : Monitoring run-time modified files using timeStampMaster (fileModificationSkew 10)
allowSystemOperations : Allowing user-supplied system call operations

// * * * * * * * * * * * * * * * * * * * * * * * * * * * * * * * * * * * * * //
Create time

Create mesh for time = 0

Selecting solver incompressibleFluid
Selecting viscosity model Newtonian
Selecting turbulence model type RAS
    Selecting RAS turbulence model kEpsilon
No MRF models present

Courant Number mean: 0 max: 0
Creating fvModels from "constant/fvModels"

Selecting finite volume model type kinematicParcelCloud
    Name: kinematicParcel
Selecting distribution type RosinRammler
    min/average/max value = 0.0001/0.000890628/0.0015
Selecting LagrangianModel with name pointInjection of type pointInjection
Selecting LagrangianModel with name gravity of type gravity
Selecting LagrangianModel with name drag of type GidaspowErgunWenYuDrag
Selecting LagrangianModel with name lift of type SaffmanMeiLift
Selecting LagrangianModel with name pressureGradient of type pressureGradientForce
Selecting LagrangianModel with name virtualMass of type constantCoefficientVirtualMass
Selecting LagrangianModel with name turbulentDispersion of type turbulentDispersion

PIMPLE: No convergence criteria found


PIMPLE: No corrector convergence criteria found
        Calculations will do 2 corrections


PIMPLE: Operating solver in transient mode with 2 outer correctors



Starting time loop

Selecting distribution type RosinRammler
    min/average/max value = 0.0001/0.000890628/0.0015
Selecting LagrangianModel with name pointInjection of type pointInjection
Selecting LagrangianModel with name gravity of type gravity
Selecting LagrangianModel with name drag of type GidaspowErgunWenYuDrag
Selecting LagrangianModel with name lift of type SaffmanMeiLift
Selecting LagrangianModel with name pressureGradient of type pressureGradientForce
Selecting LagrangianModel with name virtualMass of type constantCoefficientVirtualMass
Selecting LagrangianModel with name turbulentDispersion of type turbulentDispersion
Courant Number mean: 0 max: 0
Time = 0.01s

PIMPLE: Iteration 1
Solving cloud kinematicParcel:
    complete inInternalMesh walls open frontAndBack (processor) toBeRemoved
           0             10     0    0            0           0           0
           0             10     0    0            0           0           0
           0             10     0    0            0           0           0
           4              6     0    0            0           0           0
           4              6     0    0            0           0           0
           6              4     0    0            0           0           0
           6              4     0    0            0           0           0
           7              3     0    0            0           0           0
           7              3     0    0            0           0           0
           8              2     0    0            0           0           0
           8              2     0    0            0           0           0
          10              0     0    0            0           0           0
          10              0     0    0            0           0           0
DILUPBiCGStab:  Solving for Ux, Initial residual = 1, Final residual = 0.00120581, No Iterations 1
DILUPBiCGStab:  Solving for Uy, Initial residual = 1, Final residual = 0.00117996, No Iterations 1
GAMG:  Solving for p, Initial residual = 1, Final residual = 9.25394e-08, No Iterations 16
time step continuity errors : sum local = 1.96776e-13, global = -1.96776e-13
PIMPLE: Iteration 2
Solving cloud kinematicParcel:
    complete inInternalMesh walls open frontAndBack (processor) toBeRemoved
           0             10     0    0            0           0           0
           0             10     0    0            0           0           0
           0             10     0    0            0           0           0
           4              6     0    0            0           0           0
           4              6     0    0            0           0           0
           6              4     0    0            0           0           0
           6              4     0    0            0           0           0
           7              3     0    0            0           0           0
           7              3     0    0            0           0           0
           8              2     0    0            0           0           0
           8              2     0    0            0           0           0
          10              0     0    0            0           0           0
          10              0     0    0            0           0           0
DILUPBiCGStab:  Solving for Ux, Initial residual = 0.0273129, Final residual = 5.29623e-07, No Iterations 1
DILUPBiCGStab:  Solving for Uy, Initial residual = 0.0405627, Final residual = 9.74893e-07, No Iterations 1
GAMG:  Solving for p, Initial residual = 0.0361309, Final residual = 5.29081e-08, No Iterations 14
time step continuity errors : sum local = 2.33278e-13, global = -2.33278e-13, cumulative = -2.33278e-13
DILUPBiCGStab:  Solving for epsilon, Initial residual = 0.00573216, Final residual = 2.34343e-07, No Iterations 1
DILUPBiCGStab:  Solving for k, Initial residual = 1, Final residual = 5.15278e-07, No Iterations 2
ExecutionTime = 3.92486 s  ClockTime = 4 s

Solving cloud kinematicParcel_functionObject:
    complete inInternalMesh walls open frontAndBack (processor) toBeRemoved
           0             10     0    0            0           0           0
           0             10     0    0            0           0           0
           0             10     0    0            0           0           0
           4              6     0    0            0           0           0
           4              6     0    0            0           0           0
           6              4     0    0            0           0           0
           6              4     0    0            0           0           0
           7              3     0    0            0           0           0
           7              3     0    0            0           0           0
           8              2     0    0            0           0           0
           8              2     0    0            0           0           0
          10              0     0    0            0           0           0
          10              0     0    0            0           0           0

Courant Number mean: 4.82445e-06 max: 0.000121297
Time = 0.02s

PIMPLE: Iteration 1
Solving cloud kinematicParcel:
    complete inInternalMesh walls open frontAndBack (processor) toBeRemoved
           0             20     0    0            0           0           0
           0             20     0    0            0           0           0
           0             20     0    0            0           0           0
           1             19     0    0            0           0           0
           1             19     0    0            0           0           0
           2             18     0    0            0           0           0
           2             18     0    0            0           0           0
          15              5     0    0            0           0           0
          15              5     0    0            0           0           0
          19              1     0    0            0           0           0
          19              1     0    0            0           0           0
          20              0     0    0            0           0           0
          20              0     0    0            0           0           0
DILUPBiCGStab:  Solving for Ux, Initial residual = 0.555164, Final residual = 0.000551014, No Iterations 1
DILUPBiCGStab:  Solving for Uy, Initial residual = 0.375415, Final residual = 0.000461894, No Iterations 1
GAMG:  Solving for p, Initial residual = 0.550698, Final residual = 5.19693e-08, No Iterations 17
time step continuity errors : sum local = 5.25845e-13, global = -5.25845e-13
PIMPLE: Iteration 2
Solving cloud kinematicParcel:
    complete inInternalMesh walls open frontAndBack (processor) toBeRemoved
           0             20     0    0            0           0           0
           0             20     0    0            0           0           0
           0             20     0    0            0           0           0
           1             19     0    0            0           0           0
           1             19     0    0            0           0           0
           2             18     0    0            0           0           0
           2             18     0    0            0           0           0
          15              5     0    0            0           0           0
          15              5     0    0            0           0           0
          19              1     0    0            0           0           0
          19              1     0    0            0           0           0
          20              0     0    0            0           0           0
          20              0     0    0            0           0           0
DILUPBiCGStab:  Solving for Ux, Initial residual = 0.0129407, Final residual = 3.16563e-07, No Iterations 1
DILUPBiCGStab:  Solving for Uy, Initial residual = 0.0162114, Final residual = 5.33305e-07, No Iterations 1
GAMG:  Solving for p, Initial residual = 0.0183542, Final residual = 5.09603e-08, No Iterations 12
time step continuity errors : sum local = 9.01846e-13, global = 9.01846e-13, cumulative = 6.68568e-13
DILUPBiCGStab:  Solving for epsilon, Initial residual = 0.00223461, Final residual = 6.85603e-06, No Iterations 1
DILUPBiCGStab:  Solving for k, Initial residual = 0.345029, Final residual = 6.11374e-06, No Iterations 1
ExecutionTime = 4.7961 s  ClockTime = 5 s

Solving cloud kinematicParcel_functionObject:
    complete inInternalMesh walls open frontAndBack (processor) toBeRemoved
           0             20     0    0            0           0           0
           0             20     0    0            0           0           0
           0             20     0    0            0           0           0
           1             19     0    0            0           0           0
           1             19     0    0            0           0           0
           2             18     0    0            0           0           0
           2             18     0    0            0           0           0
          15              5     0    0            0           0           0
          15              5     0    0            0           0           0
          19              1     0    0            0           0           0
          19              1     0    0            0           0           0
          20              0     0    0            0           0           0
          20              0     0    0            0           0           0

Courant Number mean: 2.28142e-05 max: 0.00055742
Time = 0.03s

PIMPLE: Iteration 1
Solving cloud kinematicParcel:
    complete inInternalMesh walls open frontAndBack (processor) toBeRemoved
           0             30     0    0            0           0           0
           0             30     0    0            0           0           0
           0             30     0    0            0           0           0
           3             27     0    0            0           0           0
           3             27     0    0            0           0           0
           6             24     0    0            0           0           0
           6             24     0    0            0           0           0
          25              5     0    0            0           0           0
          25              5     0    0            0           0           0
          29              1     0    0            0           0           0
          29              1     0    0            0           0           0
          30              0     0    0            0           0           0
          30              0     0    0            0           0           0
DILUPBiCGStab:  Solving for Ux, Initial residual = 0.311723, Final residual = 0.000415763, No Iterations 1
DILUPBiCGStab:  Solving for Uy, Initial residual = 0.298235, Final residual = 0.000406798, No Iterations 1
GAMG:  Solving for p, Initial residual = 0.289678, Final residual = 8.74108e-08, No Iterations 16
time step continuity errors : sum local = 1.96689e-12, global = -1.96689e-12
PIMPLE: Iteration 2
Solving cloud kinematicParcel:
    complete inInternalMesh walls open frontAndBack (processor) toBeRemoved
           0             30     0    0            0           0           0
           0             30     0    0            0           0           0
           0             30     0    0            0           0           0
           3             27     0    0            0           0           0
           3             27     0    0            0           0           0
           6             24     0    0            0           0           0
           6             24     0    0            0           0           0
          25              5     0    0            0           0           0
          25              5     0    0            0           0           0
          29              1     0    0            0           0           0
          29              1     0    0            0           0           0
          30              0     0    0            0           0           0
          30              0     0    0            0           0           0
DILUPBiCGStab:  Solving for Ux, Initial residual = 0.00608133, Final residual = 1.75652e-07, No Iterations 1
DILUPBiCGStab:  Solving for Uy, Initial residual = 0.00863374, Final residual = 2.65894e-07, No Iterations 1
GAMG:  Solving for p, Initial residual = 0.0118821, Final residual = 4.96479e-08, No Iterations 13
time step continuity errors : sum local = 1.58796e-12, global = 1.58796e-12, cumulative = 2.25652e-12
DILUPBiCGStab:  Solving for epsilon, Initial residual = 0.0020245, Final residual = 5.6851e-06, No Iterations 1
DILUPBiCGStab:  Solving for k, Initial residual = 0.18895, Final residual = 3.3161e-06, No Iterations 1
ExecutionTime = 4.83841 s  ClockTime = 5 s

Solving cloud kinematicParcel_functionObject:
    complete inInternalMesh walls open frontAndBack (processor) toBeRemoved
           0             30     0    0            0           0           0
           0             30     0    0            0           0           0
           0             30     0    0            0           0           0
           3             27     0    0            0           0           0
           3             27     0    0            0           0           0
           6             24     0    0            0           0           0
           6             24     0    0            0           0           0
          25              5     0    0            0           0           0
          25              5     0    0            0           0           0
          29              1     0    0            0           0           0
          29              1     0    0            0           0           0
          30              0     0    0            0           0           0
          30              0     0    0            0           0           0

Courant Number mean: 5.34611e-05 max: 0.00130257
Time = 0.04s

PIMPLE: Iteration 1
Solving cloud kinematicParcel:
    complete inInternalMesh walls open frontAndBack (processor) toBeRemoved
           0             40     0    0            0           0           0
           0             40     0    0            0           0           0
           0             40     0    0            0           0           0
           1             39     0    0            0           0           0
           1             39     0    0            0           0           0
           3             37     0    0            0           0           0
           3             37     0    0            0           0           0
          29             11     0    0            0           0           0
          29             11     0    0            0           0           0
          38              2     0    0            0           0           0
          38              2     0    0            0           0           0
          40              0     0    0            0           0           0
          40              0     0    0            0           0           0
DILUPBiCGStab:  Solving for Ux, Initial residual = 0.241436, Final residual = 0.000343814, No Iterations 1
DILUPBiCGStab:  Solving for Uy, Initial residual = 0.241983, Final residual = 0.00035038, No Iterations 1
GAMG:  Solving for p, Initial residual = 0.229493, Final residual = 7.72378e-08, No Iterations 16
time step continuity errors : sum local = 3.11219e-12, global = -3.11219e-12
PIMPLE: Iteration 2
Solving cloud kinematicParcel:
    complete inInternalMesh walls open frontAndBack (processor) toBeRemoved
           0             40     0    0            0           0           0
           0             40     0    0            0           0           0
           0             40     0    0            0           0           0
           1             39     0    0            0           0           0
           1             39     0    0            0           0           0
           3             37     0    0            0           0           0
           3             37     0    0            0           0           0
          29             11     0    0            0           0           0
          29             11     0    0            0           0           0
          38              2     0    0            0           0           0
          38              2     0    0            0           0           0
          40              0     0    0            0           0           0
          40              0     0    0            0           0           0
DILUPBiCGStab:  Solving for Ux, Initial residual = 0.00529865, Final residual = 1.49379e-07, No Iterations 1
DILUPBiCGStab:  Solving for Uy, Initial residual = 0.00704994, Final residual = 2.18639e-07, No Iterations 1
GAMG:  Solving for p, Initial residual = 0.0109759, Final residual = 4.97178e-08, No Iterations 13
time step continuity errors : sum local = 2.80257e-12, global = 2.80257e-12, cumulative = 5.05909e-12
DILUPBiCGStab:  Solving for epsilon, Initial residual = 0.00186757, Final residual = 4.87945e-06, No Iterations 1
DILUPBiCGStab:  Solving for k, Initial residual = 0.130103, Final residual = 2.27185e-06, No Iterations 1
ExecutionTime = 4.88147 s  ClockTime = 5 s

Solving cloud kinematicParcel_functionObject:
    complete inInternalMesh walls open frontAndBack (processor) toBeRemoved
           0             40     0    0            0           0           0
           0             40     0    0            0           0           0
           0             40     0    0            0           0           0
           1             39     0    0            0           0           0
           1             39     0    0            0           0           0
           3             37     0    0            0           0           0
           3             37     0    0            0           0           0
          29             11     0    0            0           0           0
          29             11     0    0            0           0           0
          38              2     0    0            0           0           0
          38              2     0    0            0           0           0
          40              0     0    0            0           0           0
          40              0     0    0            0           0           0

Courant Number mean: 0.000104157 max: 0.00247124
Time = 0.05s

PIMPLE: Iteration 1
Solving cloud kinematicParcel:
    complete inInternalMesh walls open frontAndBack (processor) toBeRemoved
           0             50     0    0            0           0           0
           0             50     0    0            0           0           0
           0             50     0    0            0           0           0
           1             49     0    0            0           0           0
           1             49     0    0            0           0           0
           7             43     0    0            0           0           0
           7             43     0    0            0           0           0
          44              6     0    0            0           0           0
          44              6     0    0            0           0           0
          49              1     0    0            0           0           0
          49              1     0    0            0           0           0
          50              0     0    0            0           0           0
          50              0     0    0            0           0           0
DILUPBiCGStab:  Solving for Ux, Initial residual = 0.187113, Final residual = 0.00031238, No Iterations 1
DILUPBiCGStab:  Solving for Uy, Initial residual = 0.213737, Final residual = 0.000335533, No Iterations 1
GAMG:  Solving for p, Initial residual = 0.180734, Final residual = 7.11121e-08, No Iterations 16
time step continuity errors : sum local = 4.58375e-12, global = -4.58375e-12
PIMPLE: Iteration 2
Solving cloud kinematicParcel:
    complete inInternalMesh walls open frontAndBack (processor) toBeRemoved
           0             50     0    0            0           0           0
           0             50     0    0            0           0           0
           0             50     0    0            0           0           0
           1             49     0    0            0           0           0
           1             49     0    0            0           0           0
           7             43     0    0            0           0           0
           7             43     0    0            0           0           0
          44              6     0    0            0           0           0
          44              6     0    0            0           0           0
          49              1     0    0            0           0           0
          49              1     0    0            0           0           0
          50              0     0    0            0           0           0
          50              0     0    0            0           0           0
DILUPBiCGStab:  Solving for Ux, Initial residual = 0.00383491, Final residual = 1.20854e-07, No Iterations 1
DILUPBiCGStab:  Solving for Uy, Initial residual = 0.00525308, Final residual = 1.64165e-07, No Iterations 1
GAMG:  Solving for p, Initial residual = 0.0085188, Final residual = 5.8262e-08, No Iterations 13
time step continuity errors : sum local = 4.9276e-12, global = 4.9276e-12, cumulative = 9.98669e-12
DILUPBiCGStab:  Solving for epsilon, Initial residual = 0.00174603, Final residual = 4.29302e-06, No Iterations 1
DILUPBiCGStab:  Solving for k, Initial residual = 0.0996446, Final residual = 1.73985e-06, No Iterations 1
ExecutionTime = 4.92775 s  ClockTime = 5 s

Solving cloud kinematicParcel_functionObject:
    complete inInternalMesh walls open frontAndBack (processor) toBeRemoved
           0             50     0    0            0           0           0
           0             50     0    0            0           0           0
           0             50     0    0            0           0           0
           1             49     0    0            0           0           0
           1             49     0    0            0           0           0
           7             43     0    0            0           0           0
           7             43     0    0            0           0           0
          44              6     0    0            0           0           0
          44              6     0    0            0           0           0
          49              1     0    0            0           0           0
          49              1     0    0            0           0           0
          50              0     0    0            0           0           0
          50              0     0    0            0           0           0

Courant Number mean: 0.000175219 max: 0.00463029
Time = 0.06s

PIMPLE: Iteration 1
Solving cloud kinematicParcel:
    complete inInternalMesh walls open frontAndBack (processor) toBeRemoved
           0             60     0    0            0           0           0
           0             60     0    0            0           0           0
           0             60     0    0            0           0           0
           3             57     0    0            0           0           0
           3             57     0    0            0           0           0
           7             53     0    0            0           0           0
           7             53     0    0            0           0           0
          49             11     0    0            0           0           0
          49             11     0    0            0           0           0
          58              2     0    0            0           0           0
          58              2     0    0            0           0           0
          60              0     0    0            0           0           0
          60              0     0    0            0           0           0
DILUPBiCGStab:  Solving for Ux, Initial residual = 0.145198, Final residual = 0.000271165, No Iterations 1
DILUPBiCGStab:  Solving for Uy, Initial residual = 0.180231, Final residual = 0.000308666, No Iterations 1
GAMG:  Solving for p, Initial residual = 0.102081, Final residual = 6.05517e-08, No Iterations 16
time step continuity errors : sum local = 5.38678e-12, global = -5.38678e-12
PIMPLE: Iteration 2
Solving cloud kinematicParcel:
    complete inInternalMesh walls open frontAndBack (processor) toBeRemoved
           0             60     0    0            0           0           0
           0             60     0    0            0           0           0
           0             60     0    0            0           0           0
           3             57     0    0            0           0           0
           3             57     0    0            0           0           0
           7             53     0    0            0           0           0
           7             53     0    0            0           0           0
          49             11     0    0            0           0           0
          49             11     0    0            0           0           0
          58              2     0    0            0           0           0
          58              2     0    0            0           0           0
          60              0     0    0            0           0           0
          60              0     0    0            0           0           0
DILUPBiCGStab:  Solving for Ux, Initial residual = 0.00214056, Final residual = 6.91124e-06, No Iterations 1
DILUPBiCGStab:  Solving for Uy, Initial residual = 0.0032527, Final residual = 8.48165e-06, No Iterations 1
GAMG:  Solving for p, Initial residual = 0.00568371, Final residual = 9.05601e-08, No Iterations 12
time step continuity errors : sum local = 9.66306e-12, global = 9.66306e-12, cumulative = 1.96497e-11
DILUPBiCGStab:  Solving for epsilon, Initial residual = 0.00164967, Final residual = 3.85169e-06, No Iterations 1
DILUPBiCGStab:  Solving for k, Initial residual = 0.0816866, Final residual = 1.43275e-06, No Iterations 1
ExecutionTime = 4.97358 s  ClockTime = 5 s

Solving cloud kinematicParcel_functionObject:
    complete inInternalMesh walls open frontAndBack (processor) toBeRemoved
           0             60     0    0            0           0           0
           0             60     0    0            0           0           0
           0             60     0    0            0           0           0
           3             57     0    0            0           0           0
           3             57     0    0            0           0           0
           7             53     0    0            0           0           0
           7             53     0    0            0           0           0
          49             11     0    0            0           0           0
          49             11     0    0            0           0           0
          58              2     0    0            0           0           0
          58              2     0    0            0           0           0
          60              0     0    0            0           0           0
          60              0     0    0            0           0           0

Courant Number mean: 0.000261241 max: 0.00716917
Time = 0.07s

PIMPLE: Iteration 1
Solving cloud kinematicParcel:
    complete inInternalMesh walls open frontAndBack (processor) toBeRemoved
           0             70     0    0            0           0           0
           0             70     0    0            0           0           0
           0             70     0    0            0           0           0
           3             67     0    0            0           0           0
           3             67     0    0            0           0           0
           6             64     0    0            0           0           0
           6             64     0    0            0           0           0
          58             12     0    0            0           0           0
          58             12     0    0            0           0           0
          70              0     0    0            0           0           0
          70              0     0    0            0           0           0
DILUPBiCGStab:  Solving for Ux, Initial residual = 0.119611, Final residual = 0.00024115, No Iterations 1
DILUPBiCGStab:  Solving for Uy, Initial residual = 0.153776, Final residual = 0.000278993, No Iterations 1
GAMG:  Solving for p, Initial residual = 0.077746, Final residual = 5.30359e-08, No Iterations 16
time step continuity errors : sum local = 5.78996e-12, global = -5.78996e-12
PIMPLE: Iteration 2
Solving cloud kinematicParcel:
    complete inInternalMesh walls open frontAndBack (processor) toBeRemoved
           0             70     0    0            0           0           0
           0             70     0    0            0           0           0
           0             70     0    0            0           0           0
           3             67     0    0            0           0           0
           3             67     0    0            0           0           0
           6             64     0    0            0           0           0
           6             64     0    0            0           0           0
          58             12     0    0            0           0           0
          58             12     0    0            0           0           0
          70              0     0    0            0           0           0
          70              0     0    0            0           0           0
DILUPBiCGStab:  Solving for Ux, Initial residual = 0.00157243, Final residual = 5.60643e-06, No Iterations 1
DILUPBiCGStab:  Solving for Uy, Initial residual = 0.00244685, Final residual = 6.71834e-06, No Iterations 1
GAMG:  Solving for p, Initial residual = 0.0047189, Final residual = 8.95397e-08, No Iterations 12
time step continuity errors : sum local = 1.12862e-11, global = 1.12862e-11, cumulative = 3.09359e-11
DILUPBiCGStab:  Solving for epsilon, Initial residual = 0.00157508, Final residual = 3.50755e-06, No Iterations 1
DILUPBiCGStab:  Solving for k, Initial residual = 0.0699847, Final residual = 1.23675e-06, No Iterations 1
ExecutionTime = 5.0157 s  ClockTime = 5 s

Solving cloud kinematicParcel_functionObject:
    complete inInternalMesh walls open frontAndBack (processor) toBeRemoved
           0             70     0    0            0           0           0
           0             70     0    0            0           0           0
           0             70     0    0            0           0           0
           3             67     0    0            0           0           0
           3             67     0    0            0           0           0
           6             64     0    0            0           0           0
           6             64     0    0            0           0           0
          58             12     0    0            0           0           0
          58             12     0    0            0           0           0
          70              0     0    0            0           0           0
          70              0     0    0            0           0           0

Courant Number mean: 0.000360773 max: 0.00999122
Time = 0.08s

PIMPLE: Iteration 1
Solving cloud kinematicParcel:
    complete inInternalMesh walls open frontAndBack (processor) toBeRemoved
           0             80     0    0            0           0           0
           0             80     0    0            0           0           0
           0             80     0    0            0           0           0
           5             75     0    0            0           0           0
           5             75     0    0            0           0           0
           5             75     0    0            0           0           0
           5             75     0    0            0           0           0
          73              7     0    0            0           0           0
          73              7     0    0            0           0           0
          79              1     0    0            0           0           0
          79              1     0    0            0           0           0
          80              0     0    0            0           0           0
          80              0     0    0            0           0           0
DILUPBiCGStab:  Solving for Ux, Initial residual = 0.100643, Final residual = 0.000221503, No Iterations 1
DILUPBiCGStab:  Solving for Uy, Initial residual = 0.134388, Final residual = 0.000255371, No Iterations 1
GAMG:  Solving for p, Initial residual = 0.0661528, Final residual = 5.35059e-08, No Iterations 16
time step continuity errors : sum local = 6.75867e-12, global = -6.75867e-12
PIMPLE: Iteration 2
Solving cloud kinematicParcel:
    complete inInternalMesh walls open frontAndBack (processor) toBeRemoved
           0             80     0    0            0           0           0
           0             80     0    0            0           0           0
           0             80     0    0            0           0           0
           5             75     0    0            0           0           0
           5             75     0    0            0           0           0
           5             75     0    0            0           0           0
           5             75     0    0            0           0           0
          73              7     0    0            0           0           0
          73              7     0    0            0           0           0
          79              1     0    0            0           0           0
          79              1     0    0            0           0           0
          80              0     0    0            0           0           0
          80              0     0    0            0           0           0
DILUPBiCGStab:  Solving for Ux, Initial residual = 0.00127401, Final residual = 5.03793e-06, No Iterations 1
DILUPBiCGStab:  Solving for Uy, Initial residual = 0.0020191, Final residual = 5.78817e-06, No Iterations 1
GAMG:  Solving for p, Initial residual = 0.00400978, Final residual = 9.5998e-08, No Iterations 12
time step continuity errors : sum local = 1.37365e-11, global = 1.37365e-11, cumulative = 4.46724e-11
DILUPBiCGStab:  Solving for epsilon, Initial residual = 0.00151856, Final residual = 3.25044e-06, No Iterations 1
DILUPBiCGStab:  Solving for k, Initial residual = 0.0620298, Final residual = 1.10586e-06, No Iterations 1
ExecutionTime = 5.06333 s  ClockTime = 5 s

Solving cloud kinematicParcel_functionObject:
    complete inInternalMesh walls open frontAndBack (processor) toBeRemoved
           0             80     0    0            0           0           0
           0             80     0    0            0           0           0
           0             80     0    0            0           0           0
           5             75     0    0            0           0           0
           5             75     0    0            0           0           0
           5             75     0    0            0           0           0
           5             75     0    0            0           0           0
          74              6     0    0            0           0           0
          74              6     0    0            0           0           0
          79              1     0    0            0           0           0
          79              1     0    0            0           0           0
          80              0     0    0            0           0           0
          80              0     0    0            0           0           0

Courant Number mean: 0.000472397 max: 0.0129177
Time = 0.09s

PIMPLE: Iteration 1
Solving cloud kinematicParcel:
    complete inInternalMesh walls open frontAndBack (processor) toBeRemoved
           0             90     0    0            0           0           0
           0             90     0    0            0           0           0
           0             90     0    0            0           0           0
           3             87     0    0            0           0           0
           3             87     0    0            0           0           0
           7             83     0    0            0           0           0
           7             83     0    0            0           0           0
          66             24     0    0            0           0           0
          66             24     0    0            0           0           0
          89              1     0    0            0           0           0
          89              1     0    0            0           0           0
          89              1     0    0            0           0           0
          89              1     0    0            0           0           0
          90              0     0    0            0           0           0
          90              0     0    0            0           0           0
DILUPBiCGStab:  Solving for Ux, Initial residual = 0.0900794, Final residual = 0.0002078, No Iterations 1
DILUPBiCGStab:  Solving for Uy, Initial residual = 0.12011, Final residual = 0.000239955, No Iterations 1
GAMG:  Solving for p, Initial residual = 0.0589978, Final residual = 6.61057e-08, No Iterations 16
time step continuity errors : sum local = 9.55355e-12, global = -9.55355e-12
PIMPLE: Iteration 2
Solving cloud kinematicParcel:
    complete inInternalMesh walls open frontAndBack (processor) toBeRemoved
           0             89     0    0            0           0           0
           0             89     0    0            0           0           0
           0             89     0    0            0           0           0
           2             87     0    0            0           0           0
           2             87     0    0            0           0           0
           5             84     0    0            0           0           0
           5             84     0    0            0           0           0
          66             23     0    0            0           0           0
          66             23     0    0            0           0           0
          88              1     0    0            0           0           0
          88              1     0    0            0           0           0
          89              0     0    0            0           0           0
          89              0     0    0            0           0           0
DILUPBiCGStab:  Solving for Ux, Initial residual = 0.00117427, Final residual = 5.23272e-06, No Iterations 1
DILUPBiCGStab:  Solving for Uy, Initial residual = 0.00187584, Final residual = 5.8664e-06, No Iterations 1
GAMG:  Solving for p, Initial residual = 0.00398429, Final residual = 5.41133e-08, No Iterations 13
time step continuity errors : sum local = 9.03794e-12, global = 9.03794e-12, cumulative = 5.37104e-11
DILUPBiCGStab:  Solving for epsilon, Initial residual = 0.00147599, Final residual = 3.03883e-06, No Iterations 1
DILUPBiCGStab:  Solving for k, Initial residual = 0.0565891, Final residual = 1.04331e-06, No Iterations 1
ExecutionTime = 5.11952 s  ClockTime = 5 s

Solving cloud kinematicParcel_functionObject:
    complete inInternalMesh walls open frontAndBack (processor) toBeRemoved
           0             89     0    0            0           0           0
           0             89     0    0            0           0           0
           0             89     0    0            0           0           0
           2             87     0    0            0           0           0
           2             87     0    0            0           0           0
           5             84     0    0            0           0           0
           5             84     0    0            0           0           0
          65             24     0    0            0           0           0
          65             24     0    0            0           0           0
          88              1     0    0            0           0           0
          88              1     0    0            0           0           0
          89              0     0    0            0           0           0
          89              0     0    0            0           0           0

Courant Number mean: 0.000600422 max: 0.0159012
Time = 0.1s

PIMPLE: Iteration 1
Solving cloud kinematicParcel:
    complete inInternalMesh walls open frontAndBack (processor) toBeRemoved
           0             99     0    0            0           0           0
           0             99     0    0            0           0           0
           0             99     0    0            0           0           0
           1             98     0    0            0           0           0
           1             98     0    0            0           0           0
           4             95     0    0            0           0           0
           4             95     0    0            0           0           0
          80             19     0    0            0           0           0
          80             19     0    0            0           0           0
          98              1     0    0            0           0           0
          98              1     0    0            0           0           0
          99              0     0    0            0           0           0
          99              0     0    0            0           0           0
DILUPBiCGStab:  Solving for Ux, Initial residual = 0.0830059, Final residual = 0.000205847, No Iterations 1
DILUPBiCGStab:  Solving for Uy, Initial residual = 0.109046, Final residual = 0.000234531, No Iterations 1
GAMG:  Solving for p, Initial residual = 0.0573272, Final residual = 6.11551e-08, No Iterations 16
time step continuity errors : sum local = 1.03103e-11, global = -1.03103e-11
PIMPLE: Iteration 2
Solving cloud kinematicParcel:
    complete inInternalMesh walls open frontAndBack (processor) toBeRemoved
           0             99     0    0            0           0           0
           0             99     0    0            0           0           0
           0             99     0    0            0           0           0
           1             98     0    0            0           0           0
           1             98     0    0            0           0           0
           4             95     0    0            0           0           0
           4             95     0    0            0           0           0
          80             19     0    0            0           0           0
          80             19     0    0            0           0           0
          98              1     0    0            0           0           0
          98              1     0    0            0           0           0
          99              0     0    0            0           0           0
          99              0     0    0            0           0           0
DILUPBiCGStab:  Solving for Ux, Initial residual = 0.00114237, Final residual = 4.51536e-06, No Iterations 1
DILUPBiCGStab:  Solving for Uy, Initial residual = 0.00154017, Final residual = 5.00703e-06, No Iterations 1
GAMG:  Solving for p, Initial residual = 0.00448225, Final residual = 8.95204e-08, No Iterations 12
time step continuity errors : sum local = 1.70902e-11, global = 1.70902e-11, cumulative = 7.08006e-11
DILUPBiCGStab:  Solving for epsilon, Initial residual = 0.00144902, Final residual = 2.8577e-06, No Iterations 1
DILUPBiCGStab:  Solving for k, Initial residual = 0.0531156, Final residual = 1.03732e-06, No Iterations 1
ExecutionTime = 5.1684 s  ClockTime = 5 s

Solving cloud kinematicParcel_functionObject:
    complete inInternalMesh walls open frontAndBack (processor) toBeRemoved
           0             99     0    0            0           0           0
           0             99     0    0            0           0           0
           0             99     0    0            0           0           0
           1             98     0    0            0           0           0
           1             98     0    0            0           0           0
           4             95     0    0            0           0           0
           4             95     0    0            0           0           0
          80             19     0    0            0           0           0
          80             19     0    0            0           0           0
          98              1     0    0            0           0           0
          98              1     0    0            0           0           0
          99              0     0    0            0           0           0
          99              0     0    0            0           0           0

Courant Number mean: 0.000750918 max: 0.0192459
Time = 0.11s

PIMPLE: Iteration 1
Solving cloud kinematicParcel:
    complete inInternalMesh walls open frontAndBack (processor) toBeRemoved
           0            109     0    0            0           0           0
           0            109     0    0            0           0           0
           0            109     0    0            0           0           0
           0            109     0    0            0           0           0
           0            109     0    0            0           0           0
           3            106     0    0            0           0           0
           3            106     0    0            0           0           0
          87             22     0    0            0           0           0
          87             22     0    0            0           0           0
         108              1     0    0            0           0           0
         108              1     0    0            0           0           0
         109              0     0    0            0           0           0
         109              0     0    0            0           0           0
DILUPBiCGStab:  Solving for Ux, Initial residual = 0.0777003, Final residual = 0.00019995, No Iterations 1
DILUPBiCGStab:  Solving for Uy, Initial residual = 0.100298, Final residual = 0.000228225, No Iterations 1
GAMG:  Solving for p, Initial residual = 0.0599152, Final residual = 5.81758e-08, No Iterations 16
time step continuity errors : sum local = 1.11002e-11, global = -1.11002e-11
PIMPLE: Iteration 2
Solving cloud kinematicParcel:
    complete inInternalMesh walls open frontAndBack (processor) toBeRemoved
           0            109     0    0            0           0           0
           0            109     0    0            0           0           0
           0            109     0    0            0           0           0
           0            109     0    0            0           0           0
           0            109     0    0            0           0           0
           3            106     0    0            0           0           0
           3            106     0    0            0           0           0
          87             22     0    0            0           0           0
          87             22     0    0            0           0           0
         108              1     0    0            0           0           0
         108              1     0    0            0           0           0
         109              0     0    0            0           0           0
         109              0     0    0            0           0           0
DILUPBiCGStab:  Solving for Ux, Initial residual = 0.00104435, Final residual = 3.90673e-06, No Iterations 1
DILUPBiCGStab:  Solving for Uy, Initial residual = 0.00130974, Final residual = 4.40932e-06, No Iterations 1
GAMG:  Solving for p, Initial residual = 0.0042662, Final residual = 8.41543e-08, No Iterations 12
time step continuity errors : sum local = 1.76691e-11, global = 1.76691e-11, cumulative = 8.84697e-11
DILUPBiCGStab:  Solving for epsilon, Initial residual = 0.00143775, Final residual = 2.69713e-06, No Iterations 1
DILUPBiCGStab:  Solving for k, Initial residual = 0.0511717, Final residual = 1.0591e-06, No Iterations 1
ExecutionTime = 5.21647 s  ClockTime = 5 s

Solving cloud kinematicParcel_functionObject:
    complete inInternalMesh walls open frontAndBack (processor) toBeRemoved
           0            109     0    0            0           0           0
           0            109     0    0            0           0           0
           0            109     0    0            0           0           0
           0            109     0    0            0           0           0
           0            109     0    0            0           0           0
           3            106     0    0            0           0           0
           3            106     0    0            0           0           0
          87             22     0    0            0           0           0
          87             22     0    0            0           0           0
         108              1     0    0            0           0           0
         108              1     0    0            0           0           0
         109              0     0    0            0           0           0
         109              0     0    0            0           0           0

Courant Number mean: 0.0009233 max: 0.0226882
Time = 0.12s

PIMPLE: Iteration 1
Solving cloud kinematicParcel:
    complete inInternalMesh walls open frontAndBack (processor) toBeRemoved
           0            119     0    0            0           0           0
           0            119     0    0            0           0           0
           0            119     0    0            0           0           0
           2            117     0    0            0           0           0
           2            117     0    0            0           0           0
           6            113     0    0            0           0           0
           6            113     0    0            0           0           0
          99             20     0    0            0           0           0
          99             20     0    0            0           0           0
         117              2     0    0            0           0           0
         117              2     0    0            0           0           0
         119              0     0    0            0           0           0
         119              0     0    0            0           0           0
DILUPBiCGStab:  Solving for Ux, Initial residual = 0.067657, Final residual = 0.000187238, No Iterations 1
DILUPBiCGStab:  Solving for Uy, Initial residual = 0.0928952, Final residual = 0.000217919, No Iterations 1
GAMG:  Solving for p, Initial residual = 0.0525162, Final residual = 5.45201e-08, No Iterations 16
time step continuity errors : sum local = 1.13035e-11, global = -1.13035e-11
PIMPLE: Iteration 2
Solving cloud kinematicParcel:
    complete inInternalMesh walls open frontAndBack (processor) toBeRemoved
           0            119     0    0            0           0           0
           0            119     0    0            0           0           0
           0            119     0    0            0           0           0
           2            117     0    0            0           0           0
           2            117     0    0            0           0           0
           6            113     0    0            0           0           0
           6            113     0    0            0           0           0
          99             20     0    0            0           0           0
          99             20     0    0            0           0           0
         117              2     0    0            0           0           0
         117              2     0    0            0           0           0
         119              0     0    0            0           0           0
         119              0     0    0            0           0           0
DILUPBiCGStab:  Solving for Ux, Initial residual = 0.00083888, Final residual = 3.26394e-06, No Iterations 1
DILUPBiCGStab:  Solving for Uy, Initial residual = 0.00115203, Final residual = 3.75395e-06, No Iterations 1
GAMG:  Solving for p, Initial residual = 0.00435241, Final residual = 9.56255e-08, No Iterations 12
time step continuity errors : sum local = 2.14625e-11, global = 2.14625e-11, cumulative = 1.09932e-10
DILUPBiCGStab:  Solving for epsilon, Initial residual = 0.0014375, Final residual = 2.5599e-06, No Iterations 1
DILUPBiCGStab:  Solving for k, Initial residual = 0.0500542, Final residual = 1.09374e-06, No Iterations 1
ExecutionTime = 5.26085 s  ClockTime = 5 s

Solving cloud kinematicParcel_functionObject:
    complete inInternalMesh walls open frontAndBack (processor) toBeRemoved
           0            119     0    0            0           0           0
           0            119     0    0            0           0           0
           0            119     0    0            0           0           0
           2            117     0    0            0           0           0
           2            117     0    0            0           0           0
           6            113     0    0            0           0           0
           6            113     0    0            0           0           0
          98             21     0    0            0           0           0
          98             21     0    0            0           0           0
         117              2     0    0            0           0           0
         117              2     0    0            0           0           0
         119              0     0    0            0           0           0
         119              0     0    0            0           0           0

Courant Number mean: 0.0011048 max: 0.0259477
Time = 0.13s

PIMPLE: Iteration 1
Solving cloud kinematicParcel:
    complete inInternalMesh walls open frontAndBack (processor) toBeRemoved
           0            129     0    0            0           0           0
           0            129     0    0            0           0           0
           0            129     0    0            0           0           0
           1            128     0    0            0           0           0
           1            128     0    0            0           0           0
           7            122     0    0            0           0           0
           7            122     0    0            0           0           0
         111             18     0    0            0           0           0
         111             18     0    0            0           0           0
         129              0     0    0            0           0           0
         129              0     0    0            0           0           0
DILUPBiCGStab:  Solving for Ux, Initial residual = 0.0601245, Final residual = 0.0001781, No Iterations 1
DILUPBiCGStab:  Solving for Uy, Initial residual = 0.0837397, Final residual = 0.000209904, No Iterations 1
GAMG:  Solving for p, Initial residual = 0.0503153, Final residual = 4.94493e-08, No Iterations 16
time step continuity errors : sum local = 1.09379e-11, global = -1.09379e-11
PIMPLE: Iteration 2
Solving cloud kinematicParcel:
    complete inInternalMesh walls open frontAndBack (processor) toBeRemoved
           0            129     0    0            0           0           0
           0            129     0    0            0           0           0
           0            129     0    0            0           0           0
           1            128     0    0            0           0           0
           1            128     0    0            0           0           0
           7            122     0    0            0           0           0
           7            122     0    0            0           0           0
         111             18     0    0            0           0           0
         111             18     0    0            0           0           0
         129              0     0    0            0           0           0
         129              0     0    0            0           0           0
DILUPBiCGStab:  Solving for Ux, Initial residual = 0.000688855, Final residual = 2.95016e-06, No Iterations 1
DILUPBiCGStab:  Solving for Uy, Initial residual = 0.00101547, Final residual = 3.42351e-06, No Iterations 1
GAMG:  Solving for p, Initial residual = 0.00386265, Final residual = 8.68277e-08, No Iterations 12
time step continuity errors : sum local = 2.06029e-11, global = 2.06029e-11, cumulative = 1.30535e-10
DILUPBiCGStab:  Solving for epsilon, Initial residual = 0.00144849, Final residual = 2.44519e-06, No Iterations 1
DILUPBiCGStab:  Solving for k, Initial residual = 0.0495382, Final residual = 1.10841e-06, No Iterations 1
ExecutionTime = 5.30288 s  ClockTime = 5 s

Solving cloud kinematicParcel_functionObject:
    complete inInternalMesh walls open frontAndBack (processor) toBeRemoved
           0            129     0    0            0           0           0
           0            129     0    0            0           0           0
           0            129     0    0            0           0           0
           1            128     0    0            0           0           0
           1            128     0    0            0           0           0
           7            122     0    0            0           0           0
           7            122     0    0            0           0           0
         108             21     0    0            0           0           0
         108             21     0    0            0           0           0
         129              0     0    0            0           0           0
         129              0     0    0            0           0           0

Courant Number mean: 0.00129385 max: 0.0290556
Time = 0.14s

PIMPLE: Iteration 1
Solving cloud kinematicParcel:
    complete inInternalMesh walls open frontAndBack (processor) toBeRemoved
           0            139     0    0            0           0           0
           0            139     0    0            0           0           0
           0            139     0    0            0           0           0
           2            137     0    0            0           0           0
           2            137     0    0            0           0           0
           2            137     0    0            0           0           0
           2            137     0    0            0           0           0
         105             34     0    0            0           0           0
         105             34     0    0            0           0           0
         137              2     0    0            0           0           0
         137              2     0    0            0           0           0
         139              0     0    0            0           0           0
         139              0     0    0            0           0           0
DILUPBiCGStab:  Solving for Ux, Initial residual = 0.0557463, Final residual = 0.000176114, No Iterations 1
DILUPBiCGStab:  Solving for Uy, Initial residual = 0.0766095, Final residual = 0.000206162, No Iterations 1
GAMG:  Solving for p, Initial residual = 0.0529136, Final residual = 8.55451e-08, No Iterations 15
time step continuity errors : sum local = 2.00231e-11, global = -2.00231e-11
PIMPLE: Iteration 2
Solving cloud kinematicParcel:
    complete inInternalMesh walls open frontAndBack (processor) toBeRemoved
           0            139     0    0            0           0           0
           0            139     0    0            0           0           0
           0            139     0    0            0           0           0
           2            137     0    0            0           0           0
           2            137     0    0            0           0           0
           2            137     0    0            0           0           0
           2            137     0    0            0           0           0
         105             34     0    0            0           0           0
         105             34     0    0            0           0           0
         137              2     0    0            0           0           0
         137              2     0    0            0           0           0
         139              0     0    0            0           0           0
         139              0     0    0            0           0           0
DILUPBiCGStab:  Solving for Ux, Initial residual = 0.000659053, Final residual = 2.9287e-06, No Iterations 1
DILUPBiCGStab:  Solving for Uy, Initial residual = 0.000844351, Final residual = 3.52248e-06, No Iterations 1
GAMG:  Solving for p, Initial residual = 0.00403991, Final residual = 8.10486e-08, No Iterations 12
time step continuity errors : sum local = 2.04202e-11, global = 2.04202e-11, cumulative = 1.50955e-10
DILUPBiCGStab:  Solving for epsilon, Initial residual = 0.00147063, Final residual = 2.35935e-06, No Iterations 1
DILUPBiCGStab:  Solving for k, Initial residual = 0.0494595, Final residual = 1.09454e-06, No Iterations 1
ExecutionTime = 5.34747 s  ClockTime = 5 s

Solving cloud kinematicParcel_functionObject:
    complete inInternalMesh walls open frontAndBack (processor) toBeRemoved
           0            139     0    0            0           0           0
           0            139     0    0            0           0           0
           0            139     0    0            0           0           0
           2            137     0    0            0           0           0
           2            137     0    0            0           0           0
           2            137     0    0            0           0           0
           2            137     0    0            0           0           0
         105             34     0    0            0           0           0
         105             34     0    0            0           0           0
         137              2     0    0            0           0           0
         137              2     0    0            0           0           0
         139              0     0    0            0           0           0
         139              0     0    0            0           0           0

Courant Number mean: 0.00149477 max: 0.0320139
Time = 0.15s

PIMPLE: Iteration 1
Solving cloud kinematicParcel:
    complete inInternalMesh walls open frontAndBack (processor) toBeRemoved
           0            149     0    0            0           0           0
           0            149     0    0            0           0           0
           0            149     0    0            0           0           0
           1            148     0    0            0           0           0
           1            148     0    0            0           0           0
           4            145     0    0            0           0           0
           4            145     0    0            0           0           0
         115             34     0    0            0           0           0
         115             34     0    0            0           0           0
         146              3     0    0            0           0           0
         146              3     0    0            0           0           0
         149              0     0    0            0           0           0
         149              0     0    0            0           0           0
DILUPBiCGStab:  Solving for Ux, Initial residual = 0.052328, Final residual = 0.000174802, No Iterations 1
DILUPBiCGStab:  Solving for Uy, Initial residual = 0.071874, Final residual = 0.00020361, No Iterations 1
GAMG:  Solving for p, Initial residual = 0.0459395, Final residual = 7.37434e-08, No Iterations 15
time step continuity errors : sum local = 1.84512e-11, global = -1.84512e-11
PIMPLE: Iteration 2
Solving cloud kinematicParcel:
    complete inInternalMesh walls open frontAndBack (processor) toBeRemoved
           0            149     0    0            0           0           0
           0            149     0    0            0           0           0
           0            149     0    0            0           0           0
           1            148     0    0            0           0           0
           1            148     0    0            0           0           0
           4            145     0    0            0           0           0
           4            145     0    0            0           0           0
         115             34     0    0            0           0           0
         115             34     0    0            0           0           0
         146              3     0    0            0           0           0
         146              3     0    0            0           0           0
         149              0     0    0            0           0           0
         149              0     0    0            0           0           0
DILUPBiCGStab:  Solving for Ux, Initial residual = 0.000610664, Final residual = 3.14406e-06, No Iterations 1
DILUPBiCGStab:  Solving for Uy, Initial residual = 0.000813811, Final residual = 3.72902e-06, No Iterations 1
GAMG:  Solving for p, Initial residual = 0.00415875, Final residual = 7.6723e-08, No Iterations 12
time step continuity errors : sum local = 2.08104e-11, global = 2.08104e-11, cumulative = 1.71766e-10
DILUPBiCGStab:  Solving for epsilon, Initial residual = 0.00150667, Final residual = 2.30632e-06, No Iterations 1
DILUPBiCGStab:  Solving for k, Initial residual = 0.049836, Final residual = 1.05568e-06, No Iterations 1
ExecutionTime = 5.39825 s  ClockTime = 5 s

Solving cloud kinematicParcel_functionObject:
    complete inInternalMesh walls open frontAndBack (processor) toBeRemoved
           0            149     0    0            0           0           0
           0            149     0    0            0           0           0
           0            149     0    0            0           0           0
           1            148     0    0            0           0           0
           1            148     0    0            0           0           0
           4            145     0    0            0           0           0
           4            145     0    0            0           0           0
         114             35     0    0            0           0           0
         114             35     0    0            0           0           0
         146              3     0    0            0           0           0
         146              3     0    0            0           0           0
         149              0     0    0            0           0           0
         149              0     0    0            0           0           0

Courant Number mean: 0.00171352 max: 0.0349175
Time = 0.16s

PIMPLE: Iteration 1
Solving cloud kinematicParcel:
    complete inInternalMesh walls open frontAndBack (processor) toBeRemoved
           0            159     0    0            0           0           0
           0            159     0    0            0           0           0
           0            159     0    0            0           0           0
           1            158     0    0            0           0           0
           1            158     0    0            0           0           0
           3            156     0    0            0           0           0
           3            156     0    0            0           0           0
         108             51     0    0            0           0           0
         108             51     0    0            0           0           0
         156              3     0    0            0           0           0
         156              3     0    0            0           0           0
         159              0     0    0            0           0           0
         159              0     0    0            0           0           0
DILUPBiCGStab:  Solving for Ux, Initial residual = 0.0494377, Final residual = 0.000175618, No Iterations 1
DILUPBiCGStab:  Solving for Uy, Initial residual = 0.0688626, Final residual = 0.000203677, No Iterations 1
GAMG:  Solving for p, Initial residual = 0.0443206, Final residual = 7.79689e-08, No Iterations 15
time step continuity errors : sum local = 2.11429e-11, global = -2.11429e-11
PIMPLE: Iteration 2
Solving cloud kinematicParcel:
    complete inInternalMesh walls open frontAndBack (processor) toBeRemoved
           0            160     0    0            0           0           0
           0            160     0    0            0           0           0
           0            160     0    0            0           0           0
           1            159     0    0            0           0           0
           1            159     0    0            0           0           0
           3            157     0    0            0           0           0
           3            157     0    0            0           0           0
         109             51     0    0            0           0           0
         109             51     0    0            0           0           0
         157              3     0    0            0           0           0
         157              3     0    0            0           0           0
         160              0     0    0            0           0           0
         160              0     0    0            0           0           0
DILUPBiCGStab:  Solving for Ux, Initial residual = 0.000680993, Final residual = 3.59353e-06, No Iterations 1
DILUPBiCGStab:  Solving for Uy, Initial residual = 0.000856449, Final residual = 4.27768e-06, No Iterations 1
GAMG:  Solving for p, Initial residual = 0.00416158, Final residual = 7.98089e-08, No Iterations 12
time step continuity errors : sum local = 2.38453e-11, global = 2.38453e-11, cumulative = 1.95611e-10
DILUPBiCGStab:  Solving for epsilon, Initial residual = 0.00155858, Final residual = 2.28552e-06, No Iterations 1
DILUPBiCGStab:  Solving for k, Initial residual = 0.0505814, Final residual = 9.9276e-07, No Iterations 1
ExecutionTime = 5.44855 s  ClockTime = 5 s

Solving cloud kinematicParcel_functionObject:
    complete inInternalMesh walls open frontAndBack (processor) toBeRemoved
           0            160     0    0            0           0           0
           0            160     0    0            0           0           0
           0            160     0    0            0           0           0
           1            159     0    0            0           0           0
           1            159     0    0            0           0           0
           3            157     0    0            0           0           0
           3            157     0    0            0           0           0
         105             55     0    0            0           0           0
         105             55     0    0            0           0           0
         158              2     0    0            0           0           0
         158              2     0    0            0           0           0
         160              0     0    0            0           0           0
         160              0     0    0            0           0           0

Courant Number mean: 0.00194856 max: 0.0378353
Time = 0.17s

PIMPLE: Iteration 1
Solving cloud kinematicParcel:
    complete inInternalMesh walls open frontAndBack (processor) toBeRemoved
           0            170     0    0            0           0           0
           0            170     0    0            0           0           0
           0            170     0    0            0           0           0
           0            170     0    0            0           0           0
           0            170     0    0            0           0           0
           2            168     0    0            0           0           0
           2            168     0    0            0           0           0
         128             42     0    0            0           0           0
         128             42     0    0            0           0           0
         168              2     0    0            0           0           0
         168              2     0    0            0           0           0
         170              0     0    0            0           0           0
         170              0     0    0            0           0           0
DILUPBiCGStab:  Solving for Ux, Initial residual = 0.0472746, Final residual = 0.000180171, No Iterations 1
DILUPBiCGStab:  Solving for Uy, Initial residual = 0.0665079, Final residual = 0.000210438, No Iterations 1
GAMG:  Solving for p, Initial residual = 0.0461342, Final residual = 7.83017e-08, No Iterations 15
time step continuity errors : sum local = 2.35161e-11, global = -2.35161e-11
PIMPLE: Iteration 2
Solving cloud kinematicParcel:
    complete inInternalMesh walls open frontAndBack (processor) toBeRemoved
           0            170     0    0            0           0           0
           0            170     0    0            0           0           0
           0            170     0    0            0           0           0
           0            170     0    0            0           0           0
           0            170     0    0            0           0           0
           2            168     0    0            0           0           0
           2            168     0    0            0           0           0
         128             42     0    0            0           0           0
         128             42     0    0            0           0           0
         168              2     0    0            0           0           0
         168              2     0    0            0           0           0
         170              0     0    0            0           0           0
         170              0     0    0            0           0           0
DILUPBiCGStab:  Solving for Ux, Initial residual = 0.000604155, Final residual = 4.08519e-06, No Iterations 1
DILUPBiCGStab:  Solving for Uy, Initial residual = 0.000832806, Final residual = 4.61969e-06, No Iterations 1
GAMG:  Solving for p, Initial residual = 0.00385237, Final residual = 8.63401e-08, No Iterations 12
time step continuity errors : sum local = 2.87845e-11, global = 2.87845e-11, cumulative = 2.24395e-10
DILUPBiCGStab:  Solving for epsilon, Initial residual = 0.00163038, Final residual = 2.29794e-06, No Iterations 1
DILUPBiCGStab:  Solving for k, Initial residual = 0.0515773, Final residual = 9.16307e-07, No Iterations 1
ExecutionTime = 5.49901 s  ClockTime = 5 s

Solving cloud kinematicParcel_functionObject:
    complete inInternalMesh walls open frontAndBack (processor) toBeRemoved
           0            170     0    0            0           0           0
           0            170     0    0            0           0           0
           0            170     0    0            0           0           0
           0            170     0    0            0           0           0
           0            170     0    0            0           0           0
           2            168     0    0            0           0           0
           2            168     0    0            0           0           0
         129             41     0    0            0           0           0
         129             41     0    0            0           0           0
         168              2     0    0            0           0           0
         168              2     0    0            0           0           0
         170              0     0    0            0           0           0
         170              0     0    0            0           0           0

Courant Number mean: 0.00220314 max: 0.0408051
Time = 0.18s

PIMPLE: Iteration 1
Solving cloud kinematicParcel:
    complete inInternalMesh walls open frontAndBack (processor) toBeRemoved
           0            180     0    0            0           0           0
           0            180     0    0            0           0           0
           0            180     0    0            0           0           0
           1            179     0    0            0           0           0
           1            179     0    0            0           0           0
           4            176     0    0            0           0           0
           4            176     0    0            0           0           0
         132             48     0    0            0           0           0
         132             48     0    0            0           0           0
         179              1     0    0            0           0           0
         179              1     0    0            0           0           0
         180              0     0    0            0           0           0
         180              0     0    0            0           0           0
DILUPBiCGStab:  Solving for Ux, Initial residual = 0.0445432, Final residual = 0.000187303, No Iterations 1
DILUPBiCGStab:  Solving for Uy, Initial residual = 0.0633153, Final residual = 0.000224122, No Iterations 1
GAMG:  Solving for p, Initial residual = 0.0438255, Final residual = 6.34426e-08, No Iterations 15
time step continuity errors : sum local = 2.09946e-11, global = -2.09946e-11
PIMPLE: Iteration 2
Solving cloud kinematicParcel:
    complete inInternalMesh walls open frontAndBack (processor) toBeRemoved
[...]
         954              6     0    0            0           0           0
         960              0     0    0            0           0           0
         960              0     0    0            0           0           0
DILUPBiCGStab:  Solving for Ux, Initial residual = 0.000136156, Final residual = 4.58925e-06, No Iterations 1
DILUPBiCGStab:  Solving for Uy, Initial residual = 8.7295e-05, Final residual = 2.36232e-06, No Iterations 1
GAMG:  Solving for p, Initial residual = 0.00406062, Final residual = 7.92914e-08, No Iterations 10
time step continuity errors : sum local = 6.29993e-11, global = 6.29993e-11, cumulative = 4.78238e-10
DILUPBiCGStab:  Solving for epsilon, Initial residual = 0.0130412, Final residual = 7.75728e-07, No Iterations 2
DILUPBiCGStab:  Solving for k, Initial residual = 0.00984074, Final residual = 8.86238e-07, No Iterations 2
ExecutionTime = 10.2147 s  ClockTime = 10 s

Solving cloud kinematicParcel_functionObject:
    complete inInternalMesh walls open frontAndBack (processor) toBeRemoved
           0            960     0    0            0           0           0
           0            948     7    0            0           5           0
           0            960     0    0            0           0           0
           3            945     7    0            0           5           0
           3            957     0    0            0           0           0
           4            943     7    0            0           6           0
           4            956     0    0            0           0           0
         771            185     1    0            0           3           0
         771            189     0    0            0           0           0
         957              3     0    0            0           0           0
         957              3     0    0            0           0           0
         960              0     0    0            0           0           0
         960              0     0    0            0           0           0

Courant Number mean: 0.0298234 max: 0.119473
Time = 0.97s

PIMPLE: Iteration 1
Solving cloud kinematicParcel:
    complete inInternalMesh walls open frontAndBack (processor) toBeRemoved
           0            970     0    0            0           0           0
           0            960     4    0            1           5           0
           0            970     0    0            0           0           0
           1            960     7    0            0           2           0
           1            969     0    0            0           0           0
           3            952     7    0            0           8           0
           3            967     0    0            0           0           0
         752            213     1    0            0           4           0
         752            218     0    0            0           0           0
         958             12     0    0            0           0           0
         958             12     0    0            0           0           0
         970              0     0    0            0           0           0
         970              0     0    0            0           0           0
DILUPBiCGStab:  Solving for Ux, Initial residual = 0.00542396, Final residual = 7.47875e-05, No Iterations 1
DILUPBiCGStab:  Solving for Uy, Initial residual = 0.0068136, Final residual = 0.000108171, No Iterations 1
GAMG:  Solving for p, Initial residual = 0.10536, Final residual = 7.00005e-08, No Iterations 11
time step continuity errors : sum local = 5.693e-11, global = 5.693e-11
PIMPLE: Iteration 2
Solving cloud kinematicParcel:
    complete inInternalMesh walls open frontAndBack (processor) toBeRemoved
           0            970     0    0            0           0           0
           0            960     4    0            1           5           0
           0            970     0    0            0           0           0
           1            960     7    0            0           2           0
           1            969     0    0            0           0           0
           3            952     7    0            0           8           0
           3            967     0    0            0           0           0
         752            213     1    0            0           4           0
         752            218     0    0            0           0           0
         958             12     0    0            0           0           0
         958             12     0    0            0           0           0
         970              0     0    0            0           0           0
         970              0     0    0            0           0           0
DILUPBiCGStab:  Solving for Ux, Initial residual = 0.000135141, Final residual = 3.97491e-06, No Iterations 1
DILUPBiCGStab:  Solving for Uy, Initial residual = 8.03232e-05, Final residual = 1.89789e-06, No Iterations 1
GAMG:  Solving for p, Initial residual = 0.00387726, Final residual = 7.58211e-08, No Iterations 9
time step continuity errors : sum local = 6.33861e-11, global = -6.33861e-11, cumulative = 4.14852e-10
DILUPBiCGStab:  Solving for epsilon, Initial residual = 0.0128679, Final residual = 7.8048e-07, No Iterations 2
DILUPBiCGStab:  Solving for k, Initial residual = 0.00971385, Final residual = 8.79045e-07, No Iterations 2
ExecutionTime = 10.2824 s  ClockTime = 10 s

Solving cloud kinematicParcel_functionObject:
    complete inInternalMesh walls open frontAndBack (processor) toBeRemoved
           0            970     0    0            0           0           0
           0            958     8    0            0           4           0
           0            970     0    0            0           0           0
           1            952    13    0            1           3           0
           1            969     0    0            0           0           0
           3            962     2    0            0           3           0
           3            967     0    0            0           0           0
         766            199     2    0            0           3           0
         766            204     0    0            0           0           0
         965              5     0    0            0           0           0
         965              5     0    0            0           0           0
         970              0     0    0            0           0           0
         970              0     0    0            0           0           0

Courant Number mean: 0.0300793 max: 0.119902
Time = 0.98s

PIMPLE: Iteration 1
Solving cloud kinematicParcel:
    complete inInternalMesh walls open frontAndBack (processor) toBeRemoved
           0            980     0    0            0           0           0
           0            965    12    0            0           3           0
           0            980     0    0            0           0           0
           1            964     9    0            0           6           0
           1            979     0    0            0           0           0
           3            963     8    0            0           6           0
           3            977     0    0            0           0           0
         793            182     1    0            0           4           0
         793            187     0    0            0           0           0
         974              6     0    0            0           0           0
         974              6     0    0            0           0           0
         980              0     0    0            0           0           0
         980              0     0    0            0           0           0
DILUPBiCGStab:  Solving for Ux, Initial residual = 0.00565651, Final residual = 7.77656e-05, No Iterations 1
DILUPBiCGStab:  Solving for Uy, Initial residual = 0.00658032, Final residual = 0.000121469, No Iterations 1
GAMG:  Solving for p, Initial residual = 0.0834361, Final residual = 6.75129e-08, No Iterations 13
time step continuity errors : sum local = 5.73409e-11, global = -5.73409e-11
PIMPLE: Iteration 2
Solving cloud kinematicParcel:
    complete inInternalMesh walls open frontAndBack (processor) toBeRemoved
           0            980     0    0            0           0           0
           0            965    12    0            0           3           0
           0            980     0    0            0           0           0
           1            964     9    0            0           6           0
           1            979     0    0            0           0           0
           3            963     8    0            0           6           0
           3            977     0    0            0           0           0
         793            182     1    0            0           4           0
         793            187     0    0            0           0           0
         974              6     0    0            0           0           0
         974              6     0    0            0           0           0
         980              0     0    0            0           0           0
         980              0     0    0            0           0           0
DILUPBiCGStab:  Solving for Ux, Initial residual = 0.00016503, Final residual = 5.68596e-06, No Iterations 1
DILUPBiCGStab:  Solving for Uy, Initial residual = 8.98455e-05, Final residual = 2.30699e-06, No Iterations 1
GAMG:  Solving for p, Initial residual = 0.00404323, Final residual = 6.11563e-08, No Iterations 10
time step continuity errors : sum local = 5.34685e-11, global = 5.34685e-11, cumulative = 4.68321e-10
DILUPBiCGStab:  Solving for epsilon, Initial residual = 0.0127225, Final residual = 7.86253e-07, No Iterations 2
DILUPBiCGStab:  Solving for k, Initial residual = 0.00960895, Final residual = 8.51336e-07, No Iterations 2
ExecutionTime = 10.3505 s  ClockTime = 10 s

Solving cloud kinematicParcel_functionObject:
    complete inInternalMesh walls open frontAndBack (processor) toBeRemoved
           0            980     0    0            0           0           0
           0            968     5    0            0           7           0
           0            980     0    0            0           0           0
           1            956    16    0            0           7           0
           1            979     0    0            0           0           0
           3            966     7    0            0           4           0
           3            977     0    0            0           0           0
         801            173     3    0            0           3           0
         801            179     0    0            0           0           0
         971              9     0    0            0           0           0
         971              9     0    0            0           0           0
         980              0     0    0            0           0           0
         980              0     0    0            0           0           0

Courant Number mean: 0.0303427 max: 0.120522
Time = 0.99s

PIMPLE: Iteration 1
Solving cloud kinematicParcel:
    complete inInternalMesh walls open frontAndBack (processor) toBeRemoved
           0            990     0    0            0           0           0
           0            975    11    0            0           4           0
           0            990     0    0            0           0           0
           1            968    10    0            0          11           0
           1            989     0    0            0           0           0
           5            974     6    0            0           5           0
           5            985     0    0            0           0           0
         781            202     6    0            0           1           0
         781            209     0    0            0           0           0
         986              4     0    0            0           0           0
         986              4     0    0            0           0           0
         990              0     0    0            0           0           0
         990              0     0    0            0           0           0
DILUPBiCGStab:  Solving for Ux, Initial residual = 0.00558307, Final residual = 8.70459e-05, No Iterations 1
DILUPBiCGStab:  Solving for Uy, Initial residual = 0.00664206, Final residual = 0.000125086, No Iterations 1
GAMG:  Solving for p, Initial residual = 0.0958436, Final residual = 5.83116e-08, No Iterations 13
time step continuity errors : sum local = 5.0152e-11, global = 5.0152e-11
PIMPLE: Iteration 2
Solving cloud kinematicParcel:
    complete inInternalMesh walls open frontAndBack (processor) toBeRemoved
           0            990     0    0            0           0           0
           0            975    11    0            0           4           0
           0            990     0    0            0           0           0
           1            968    10    0            0          11           0
           1            989     0    0            0           0           0
           5            974     6    0            0           5           0
           5            985     0    0            0           0           0
         781            202     6    0            0           1           0
         781            209     0    0            0           0           0
         986              4     0    0            0           0           0
         986              4     0    0            0           0           0
         990              0     0    0            0           0           0
         990              0     0    0            0           0           0
DILUPBiCGStab:  Solving for Ux, Initial residual = 0.000144019, Final residual = 3.79112e-06, No Iterations 1
DILUPBiCGStab:  Solving for Uy, Initial residual = 8.09944e-05, Final residual = 2.16138e-06, No Iterations 1
GAMG:  Solving for p, Initial residual = 0.00384287, Final residual = 5.23245e-08, No Iterations 11
time step continuity errors : sum local = 4.40442e-11, global = -4.40442e-11, cumulative = 4.24277e-10
DILUPBiCGStab:  Solving for epsilon, Initial residual = 0.012551, Final residual = 7.87543e-07, No Iterations 2
DILUPBiCGStab:  Solving for k, Initial residual = 0.00948612, Final residual = 8.41056e-07, No Iterations 2
ExecutionTime = 10.4198 s  ClockTime = 10 s

Solving cloud kinematicParcel_functionObject:
    complete inInternalMesh walls open frontAndBack (processor) toBeRemoved
           0            990     0    0            0           0           0
           0            973     8    0            0           9           0
           0            990     0    0            0           0           0
           1            977     9    0            0           3           0
           1            989     0    0            0           0           0
           5            974     5    0            0           6           0
           5            985     0    0            0           0           0
         803            183     3    0            0           1           0
         803            187     0    0            0           0           0
         988              2     0    0            0           0           0
         988              2     0    0            0           0           0
         990              0     0    0            0           0           0
         990              0     0    0            0           0           0

Courant Number mean: 0.0306028 max: 0.121215
Time = 1s

PIMPLE: Iteration 1
Solving cloud kinematicParcel:
    complete inInternalMesh walls open frontAndBack (processor) toBeRemoved
           0           1000     0    0            0           0           0
           0            986     5    0            2           7           0
           0           1000     0    0            0           0           0
           3            989     5    0            0           3           0
           3            997     0    0            0           0           0
           9            977     5    0            0           9           0
           9            991     0    0            0           0           0
         778            213     3    0            0           6           0
         778            222     0    0            0           0           0
         995              5     0    0            0           0           0
         995              5     0    0            0           0           0
        1000              0     0    0            0           0           0
        1000              0     0    0            0           0           0
DILUPBiCGStab:  Solving for Ux, Initial residual = 0.00535246, Final residual = 8.13526e-05, No Iterations 1
DILUPBiCGStab:  Solving for Uy, Initial residual = 0.0064617, Final residual = 9.97355e-05, No Iterations 1
GAMG:  Solving for p, Initial residual = 0.0907675, Final residual = 5.86477e-08, No Iterations 13
time step continuity errors : sum local = 4.87029e-11, global = 4.87029e-11
PIMPLE: Iteration 2
Solving cloud kinematicParcel:
    complete inInternalMesh walls open frontAndBack (processor) toBeRemoved
           0           1000     0    0            0           0           0
           0            986     5    0            2           7           0
           0           1000     0    0            0           0           0
           3            989     5    0            0           3           0
           3            997     0    0            0           0           0
           9            977     5    0            0           9           0
           9            991     0    0            0           0           0
         778            213     3    0            0           6           0
         778            222     0    0            0           0           0
         995              5     0    0            0           0           0
         995              5     0    0            0           0           0
        1000              0     0    0            0           0           0
        1000              0     0    0            0           0           0
DILUPBiCGStab:  Solving for Ux, Initial residual = 0.000133442, Final residual = 4.81001e-06, No Iterations 1
DILUPBiCGStab:  Solving for Uy, Initial residual = 9.09923e-05, Final residual = 3.32885e-06, No Iterations 1
GAMG:  Solving for p, Initial residual = 0.00380389, Final residual = 6.25598e-08, No Iterations 11
time step continuity errors : sum local = 5.03604e-11, global = -5.03604e-11, cumulative = 3.73916e-10
DILUPBiCGStab:  Solving for epsilon, Initial residual = 0.0123553, Final residual = 7.82951e-07, No Iterations 2
DILUPBiCGStab:  Solving for k, Initial residual = 0.00934902, Final residual = 8.17712e-07, No Iterations 2
ExecutionTime = 10.492 s  ClockTime = 11 s

Solving cloud kinematicParcel_functionObject:
    complete inInternalMesh walls open frontAndBack (processor) toBeRemoved
           0           1000     0    0            0           0           0
           0            984     9    0            0           7           0
           0           1000     0    0            0           0           0
           3            988     3    0            0           6           0
           3            997     0    0            0           0           0
           9            975     6    0            1           9           0
           9            991     0    0            0           0           0
         794            201     2    0            0           3           0
         794            206     0    0            0           0           0
         994              6     0    0            0           0           0
         994              6     0    0            0           0           0
        1000              0     0    0            0           0           0
        1000              0     0    0            0           0           0

End

Finalising parallel run
