/*---------------------------------------------------------------------------*\
  =========                 |
  \\      /  F ield         | OpenFOAM: The Open Source CFD Toolbox
   \\    /   O peration     | Website:  https://openfoam.org
    \\  /    A nd           | Version:  13
     \\/     M anipulation  |
\*---------------------------------------------------------------------------*/
Build  : 13-19a3d5400c8c
Exec   : blockMesh
Date   : Jun 23 2026
Time   : 13:54:13
Host   : "kol-serv"
PID    : 1256215
I/O    : uncollated
Case   : /home/kol/OpenFOAM/OpenFOAM-13/test/Lagrangian/coupling
nProcs : 1
sigFpe : Enabling floating point exception trapping (FOAM_SIGFPE).
fileModificationChecking : Monitoring run-time modified files using timeStampMaster (fileModificationSkew 10)
allowSystemOperations : Allowing user-supplied system call operations

// * * * * * * * * * * * * * * * * * * * * * * * * * * * * * * * * * * * * * //
Create time

Reading "blockMeshDict"

Creating block mesh from
    "system/blockMeshDict"
Creating block edges
No non-planar block faces defined
Creating topology blocks
Creating topology patches

Creating block mesh topology

Basic statistics
    Number of internal faces : 0
    Number of boundary faces : 6
    Number of defined boundary faces : 6
    Number of undefined boundary faces : 0

Checking topology
Creating block offsets
Creating merge list .

Creating polyMesh from blockMesh
Creating patches
Creating cells
Creating points with scale 0.025
    Block 0 cell size :
        i : 0.025
        j : 0.025
        k : 0.05

No patch pairs to merge

Writing polyMesh
----------------
Mesh Information
----------------
  boundingBox: (-0.25 0 -0.025) (0.25 0.5 0.025)
  nPoints: 882
  nCells: 400
  nFaces: 1640
  nInternalFaces: 760
----------------
Patches
----------------
  patch 0 (start: 760 size: 60) name: walls
  patch 1 (start: 820 size: 20) name: open
  patch 2 (start: 840 size: 800) name: frontAndBack

End

