/*---------------------------------------------------------------------------*\
| =========                 |                                                 |
| \\      /  F ield         | OpenFOAM: The Open Source CFD Toolbox           |
|  \\    /   O peration     | Version:  2412                                  |
|   \\  /    A nd           | Website:  www.openfoam.com                      |
|    \\/     M anipulation  |                                                 |
\*---------------------------------------------------------------------------*/
Build  : _8dbc61e11c-20241220 OPENFOAM=2412 version=v2412
Arch   : "LSB;label=64;scalar=64"
Exec   : blockMesh
Date   : Jun 23 2026
Time   : 11:09:13
Host   : kol-serv
PID    : 840582
I/O    : uncollated
Case   : /home/kol/OpenFOAM/OpenFOAM-12/test/boundaryLayer/boundaryNonNewtonian
nProcs : 1
trapFpe: Floating point exception trapping enabled (FOAM_SIGFPE).
fileModificationChecking : Monitoring run-time modified files using timeStampMaster (fileModificationSkew 5, maxFileModificationPolls 20)
allowSystemOperations : Allowing user-supplied system call operations

// * * * * * * * * * * * * * * * * * * * * * * * * * * * * * * * * * * * * * //
Create time

Creating block mesh from "system/blockMeshDict"
--> FOAM IOWarning :
    Found [v1012] 'convertToMeters' entry instead of 'scale' in dictionary "system/blockMeshDict"

    This keyword is 168 months old.

No non-linear block edges defined
No non-planar block faces defined
Creating topology blocks

Creating topology patches - from boundary section

Creating block mesh topology - scaling/transform applied later
--> FOAM Warning : 
    From Foam::polyMesh::polyMesh(const Foam::IOobject&, Foam::pointField&&, const Foam::cellShapeList&, const Foam::faceListList&, const Foam::wordList&, const Foam::PtrList<Foam::dictionary>&, const Foam::word&, const Foam::word&, bool)
    in file meshes/polyMesh/polyMeshFromShapeMesh.C at line 915
    Found 4 undefined faces in mesh; adding to default patch defaultFaces

Check topology

	Basic statistics
		Number of internal faces : 1
		Number of boundary faces : 10
		Number of defined boundary faces : 10
		Number of undefined boundary faces : 0
	Checking patch -> block consistency

Creating block offsets
Creating merge list (topological search)...

Creating polyMesh from blockMesh
Creating patches
Creating cells
Creating points with scale (0.05 0.05 0.05)
    Block 0 cell size :
        i : 0.005 .. 0.005
        j : 0.00125 .. 0.00125
        k : 0.005 .. 0.005

    Block 1 cell size :
        i : 0.005 .. 0.005
        j : 0.00125 .. 0.00125
        k : 0.005 .. 0.005

No patch pairs to merge

Detected cyclic patches; ordering boundary faces

Writing polyMesh with 0 cellZones
----------------
Mesh Information
----------------
  boundingBox: (0 -0.05 0) (0.005 0.05 0.005)
  nPoints: 324
  nCells: 80
  nFaces: 401
  nInternalFaces: 79
----------------
Patches
----------------
  patch 0 (start: 79 size: 1) name: lowerWall
  patch 1 (start: 80 size: 1) name: upperWall
  patch 2 (start: 81 size: 80) name: front
  patch 3 (start: 161 size: 80) name: back
  patch 4 (start: 241 size: 160) name: defaultFaces

End

