/*---------------------------------------------------------------------------*\
| =========                 |                                                 |
| \\      /  F ield         | OpenFOAM: The Open Source CFD Toolbox           |
|  \\    /   O peration     | Version:  2412                                  |
|   \\  /    A nd           | Website:  www.openfoam.com                      |
|    \\/     M anipulation  |                                                 |
\*---------------------------------------------------------------------------*/
Build  : _8dbc61e11c-20241220 OPENFOAM=2412 version=v2412
Arch   : "LSB;label=64;scalar=64"
Exec   : foamToVTK
Date   : Jun 23 2026
Time   : 11:13:40
Host   : kol-serv
PID    : 860072
I/O    : uncollated
Case   : /home/kol/OpenFOAM/OpenFOAM-12/test/fvMeshTools/cavity
nProcs : 1
trapFpe: Floating point exception trapping enabled (FOAM_SIGFPE).
fileModificationChecking : Monitoring run-time modified files using timeStampMaster (fileModificationSkew 5, maxFileModificationPolls 20)
allowSystemOperations : Allowing user-supplied system call operations

// * * * * * * * * * * * * * * * * * * * * * * * * * * * * * * * * * * * * * //
Create time

Initial memory 200032 kB
Create mesh for time = 0

VTK mesh topology: 0 s, 200324 kB
Time: 0
    volScalar    : p
    volVector    : U
    Internal  : "VTK/cavity_0/internal.vtu"
    Boundary  : "VTK/cavity_0/boundary/zeroSizedPatch.vtp"
    Boundary  : "VTK/cavity_0/boundary/movingWall.vtp"
    Boundary  : "VTK/cavity_0/boundary/fixedWalls.vtp"
Wrote in 0.01 s, 200840 kB

End: 0.01 s, 200860 kB (peak)

