/*---------------------------------------------------------------------------*\
  =========                 |
  \\      /  F ield         | OpenFOAM: The Open Source CFD Toolbox
   \\    /   O peration     | Website:  https://openfoam.org
    \\  /    A nd           | Version:  12
     \\/     M anipulation  |
\*---------------------------------------------------------------------------*/
Build  : 12-0b487fc98b88
Exec   : chemFoam
Date   : Jun 23 2026
Time   : 23:44:06
Host   : "kol-serv"
PID    : 1800550
I/O    : uncollated
Case   : /home/kol/OpenFOAM/OpenFOAM-12/test/chemistry/ic8h18_TDAC
nProcs : 1
sigFpe : Enabling floating point exception trapping (FOAM_SIGFPE).
fileModificationChecking : Monitoring run-time modified files using timeStampMaster (fileModificationSkew 10)
allowSystemOperations : Allowing user-supplied system call operations

// * * * * * * * * * * * * * * * * * * * * * * * * * * * * * * * * * * * * * //
Create time

Constructing zero-dimensional mesh

Reading initial conditions.

Creating base fields for time 0
Reading thermophysical properties

Selecting thermodynamics package 
{
    type            heRhoThermo;
    mixture         multicomponentMixture;
    transport       sutherland;
    thermo          janaf;
    energy          sensibleEnthalpy;
    equationOfState perfectGas;
    specie          specie;
}

Selecting chemistry solver 
{
    solver          ode;
    method          chemistryModel;
}

odeChemistryModel: Number of species = 874
Selecting chemistry reduction method DAC
element not considered
element not considered
Selecting chemistry tabulation method none
chemistryModel: Number of species = 874 and reactions = 3796
Selecting ODE solver seulex
Reading/calculating face flux field phi

pressure will be held constant.
 p   = 5.06625e+06 [Pa]
 T   = 800 [K] 
 rho = 23.0494 [kg/m^3]


Starting time loop

deltaT = 1e-07
Time = 1e-07s

Qdot = -112.097, T = 800, p = 5.06625e+06, H = 0
ExecutionTime = 0.737071 s  ClockTime = 1 s

deltaT = 1.9996e-07
Time = 2.9996e-07s

Qdot = 14.9314, T = 800, p = 5.06625e+06, H = 0
ExecutionTime = 0.762404 s  ClockTime = 1 s

deltaT = 3.9976e-07
Time = 6.9972e-07s

Qdot = -28.2683, T = 800, p = 5.06625e+06, H = 0
ExecutionTime = 0.787162 s  ClockTime = 1 s

deltaT = 7.9888e-07
Time = 1.4986e-06s

Qdot = -25.6723, T = 800, p = 5.06625e+06, H = 0
ExecutionTime = 0.810128 s  ClockTime = 1 s

deltaT = 1.59776e-06
Time = 3.09636e-06s

Qdot = -21.7437, T = 800, p = 5.06625e+06, H = 1.822e-19
ExecutionTime = 0.838322 s  ClockTime = 1 s

deltaT = 3.18528e-06
Time = 6.28164e-06s

Qdot = -15.3151, T = 800, p = 5.06625e+06, H = 3.1944e-19
ExecutionTime = 0.865629 s  ClockTime = 1 s

deltaT = 6.32972e-06
Time = 1.26114e-05s

Qdot = 0.711961, T = 800, p = 5.06625e+06, H = 6.89143e-19
ExecutionTime = 0.895488 s  ClockTime = 1 s

deltaT = 9.94671e-06
Time = 2.25581e-05s

Qdot = 30.2747, T = 800, p = 5.06625e+06, H = 1.67049e-18
ExecutionTime = 0.929788 s  ClockTime = 1 s

deltaT = 9.94671e-06
Time = 3.25048e-05s

Qdot = 67.2859, T = 800, p = 5.06625e+06, H = 2.92832e-18
ExecutionTime = 0.959704 s  ClockTime = 1 s

deltaT = 9.94671e-06
Time = 4.24515e-05s

Qdot = 104.809, T = 800, p = 5.06625e+06, H = 4.47287e-18
ExecutionTime = 0.990312 s  ClockTime = 1 s

deltaT = 9.94671e-06
Time = 5.23982e-05s

Qdot = 142.961, T = 800, p = 5.06625e+06, H = 6.78666e-18
ExecutionTime = 1.02125 s  ClockTime = 1 s

deltaT = 9.94671e-06
Time = 6.23449e-05s

Qdot = 181.789, T = 800, p = 5.06625e+06, H = 9.64143e-18
ExecutionTime = 1.05175 s  ClockTime = 1 s

deltaT = 9.94671e-06
Time = 7.22916e-05s

Qdot = 221.813, T = 800, p = 5.06625e+06, H = 1.30383e-17
ExecutionTime = 1.08434 s  ClockTime = 1 s

deltaT = 9.94671e-06
Time = 8.22383e-05s

Qdot = 262.894, T = 800, p = 5.06625e+06, H = 1.69766e-17
ExecutionTime = 1.11811 s  ClockTime = 1 s

deltaT = 9.94671e-06
Time = 9.2185e-05s

Qdot = 305.425, T = 800, p = 5.06625e+06, H = 2.14516e-17
ExecutionTime = 1.15378 s  ClockTime = 1 s

deltaT = 9.94671e-06
Time = 0.000102132s

Qdot = 349.489, T = 800, p = 5.06625e+06, H = 2.64927e-17
ExecutionTime = 1.18533 s  ClockTime = 1 s

deltaT = 9.94671e-06
Time = 0.000112078s

Qdot = 395.477, T = 800, p = 5.06625e+06, H = 3.20982e-17
ExecutionTime = 1.22225 s  ClockTime = 1 s

deltaT = 9.94671e-06
Time = 0.000122025s

Qdot = 443.375, T = 800, p = 5.06625e+06, H = 3.82808e-17
ExecutionTime = 1.2532 s  ClockTime = 1 s

deltaT = 9.94671e-06
Time = 0.000131972s

Qdot = 493.635, T = 800, p = 5.06625e+06, H = 4.50565e-17
ExecutionTime = 1.30085 s  ClockTime = 1 s

deltaT = 9.94671e-06
Time = 0.000141919s

Qdot = 546.162, T = 800, p = 5.06625e+06, H = 5.24437e-17
ExecutionTime = 1.33314 s  ClockTime = 2 s

deltaT = 9.94671e-06
Time = 0.000151865s

Qdot = 601.515, T = 800, p = 5.06625e+06, H = 6.04643e-17
ExecutionTime = 1.37025 s  ClockTime = 2 s

deltaT = 9.94671e-06
Time = 0.000161812s

Qdot = 659.509, T = 800, p = 5.06625e+06, H = 6.91422e-17
ExecutionTime = 1.40295 s  ClockTime = 2 s

deltaT = 9.94671e-06
Time = 0.000171759s

Qdot = 720.727, T = 800, p = 5.06625e+06, H = 7.8505e-17
ExecutionTime = 1.43359 s  ClockTime = 2 s

deltaT = 9.94671e-06
Time = 0.000181705s

Qdot = 784.998, T = 800, p = 5.06625e+06, H = 8.85818e-17
ExecutionTime = 1.46237 s  ClockTime = 2 s

deltaT = 9.94671e-06
Time = 0.000191652s

Qdot = 853.078, T = 800, p = 5.06625e+06, H = 9.94069e-17
ExecutionTime = 1.49196 s  ClockTime = 2 s

deltaT = 9.94671e-06
Time = 0.000201599s

Qdot = 924.557, T = 800, p = 5.06625e+06, H = 1.11014e-16
ExecutionTime = 1.52142 s  ClockTime = 2 s

deltaT = 9.94671e-06
Time = 0.000211546s

Qdot = 1000.24, T = 800, p = 5.06625e+06, H = 1.23443e-16
ExecutionTime = 1.55187 s  ClockTime = 2 s

deltaT = 9.94671e-06
Time = 0.000221492s

Qdot = 1079.95, T = 800, p = 5.06625e+06, H = 1.36733e-16
ExecutionTime = 1.58289 s  ClockTime = 2 s

deltaT = 9.94671e-06
Time = 0.000231439s

Qdot = 1164.27, T = 800, p = 5.06625e+06, H = 1.50929e-16
ExecutionTime = 1.61435 s  ClockTime = 2 s

deltaT = 9.94671e-06
Time = 0.000241386s

Qdot = 1253.16, T = 800, p = 5.06625e+06, H = 1.66077e-16
ExecutionTime = 1.64517 s  ClockTime = 2 s

deltaT = 9.94671e-06
Time = 0.000251332s

Qdot = 1347.33, T = 800, p = 5.06625e+06, H = 1.82228e-16
ExecutionTime = 1.67689 s  ClockTime = 2 s

deltaT = 9.94671e-06
Time = 0.000261279s

Qdot = 1446.46, T = 800, p = 5.06625e+06, H = 1.99434e-16
ExecutionTime = 1.71158 s  ClockTime = 2 s

deltaT = 9.94671e-06
Time = 0.000271226s

Qdot = 1551.6, T = 800, p = 5.06625e+06, H = 2.17753e-16
ExecutionTime = 1.74393 s  ClockTime = 2 s

deltaT = 9.94671e-06
Time = 0.000281172s

Qdot = 1662.46, T = 800, p = 5.06625e+06, H = 2.37244e-16
ExecutionTime = 1.78208 s  ClockTime = 2 s

deltaT = 9.94671e-06
Time = 0.000291119s

Qdot = 1779.86, T = 800, p = 5.06625e+06, H = 2.57971e-16
ExecutionTime = 1.81471 s  ClockTime = 2 s

deltaT = 9.94671e-06
Time = 0.000301066s

Qdot = 1903.83, T = 800, p = 5.06625e+06, H = 2.80002e-16
ExecutionTime = 1.84586 s  ClockTime = 2 s

deltaT = 9.94671e-06
Time = 0.000311013s

Qdot = 2035.53, T = 800, p = 5.06625e+06, H = 3.0341e-16
ExecutionTime = 1.87762 s  ClockTime = 2 s

deltaT = 9.94671e-06
Time = 0.000320959s

Qdot = 2174.23, T = 800, p = 5.06625e+06, H = 3.2827e-16
ExecutionTime = 1.91195 s  ClockTime = 2 s

deltaT = 9.94671e-06
Time = 0.000330906s

Qdot = 2321, T = 800, p = 5.06625e+06, H = 3.54665e-16
ExecutionTime = 1.94683 s  ClockTime = 2 s

deltaT = 9.94671e-06
Time = 0.000340853s

Qdot = 2476.03, T = 800, p = 5.06625e+06, H = 3.82678e-16
ExecutionTime = 1.97838 s  ClockTime = 2 s

deltaT = 9.94671e-06
Time = 0.000350799s

Qdot = 2640.43, T = 800, p = 5.06625e+06, H = 4.12404e-16
ExecutionTime = 2.0138 s  ClockTime = 2 s

deltaT = 9.94671e-06
Time = 0.000360746s

Qdot = 2813.76, T = 800, p = 5.06625e+06, H = 4.43937e-16
ExecutionTime = 2.0466 s  ClockTime = 2 s

deltaT = 9.94671e-06
Time = 0.000370693s

Qdot = 2997.59, T = 800, p = 5.06625e+06, H = 4.77379e-16
ExecutionTime = 2.08005 s  ClockTime = 2 s

deltaT = 9.94671e-06
Time = 0.00038064s

Qdot = 3191.62, T = 800, p = 5.06625e+06, H = 5.12837e-16
ExecutionTime = 2.11299 s  ClockTime = 2 s

deltaT = 9.94671e-06
Time = 0.000390586s

Qdot = 3397.28, T = 800, p = 5.06625e+06, H = 5.50428e-16
ExecutionTime = 2.14519 s  ClockTime = 2 s

deltaT = 9.94671e-06
Time = 0.000400533s

Qdot = 3614.27, T = 800, p = 5.06625e+06, H = 5.9027e-16
ExecutionTime = 2.17722 s  ClockTime = 2 s

deltaT = 9.94671e-06
Time = 0.00041048s

Qdot = 3844.42, T = 800, p = 5.06625e+06, H = 6.32494e-16
ExecutionTime = 2.2123 s  ClockTime = 2 s

deltaT = 9.94671e-06
Time = 0.000420426s

Qdot = 4088.13, T = 800, p = 5.06625e+06, H = 6.77273e-16
ExecutionTime = 2.24445 s  ClockTime = 2 s

deltaT = 9.94671e-06
Time = 0.000430373s

Qdot = 4345.8, T = 800.001, p = 5.06625e+06, H = 7.24681e-16
ExecutionTime = 2.27945 s  ClockTime = 2 s

deltaT = 9.94671e-06
Time = 0.00044032s

Qdot = 4618.05, T = 800.001, p = 5.06625e+06, H = 7.74901e-16
ExecutionTime = 2.31152 s  ClockTime = 2 s

deltaT = 9.94671e-06
Time = 0.000450266s

Qdot = 4906.72, T = 800.001, p = 5.06625e+06, H = 8.28099e-16
ExecutionTime = 2.34107 s  ClockTime = 3 s

deltaT = 9.94671e-06
Time = 0.000460213s

Qdot = 5211.5, T = 800.001, p = 5.06625e+06, H = 8.84443e-16
ExecutionTime = 2.37218 s  ClockTime = 3 s

deltaT = 9.94671e-06
Time = 0.00047016s

Qdot = 5534.44, T = 800.001, p = 5.06625e+06, H = 9.44115e-16
ExecutionTime = 2.40283 s  ClockTime = 3 s

deltaT = 9.94671e-06
Time = 0.000480107s

Qdot = 5875.48, T = 800.001, p = 5.06625e+06, H = 1.0073e-15
ExecutionTime = 2.43488 s  ClockTime = 3 s

deltaT = 9.94671e-06
Time = 0.000490053s

Qdot = 6237.18, T = 800.001, p = 5.06625e+06, H = 1.07422e-15
ExecutionTime = 2.4674 s  ClockTime = 3 s

deltaT = 9.94671e-06
Time = 0.0005s

Qdot = 6619.28, T = 800.001, p = 5.06625e+06, H = 1.14506e-15
ExecutionTime = 2.51872 s  ClockTime = 3 s

deltaT = 1e-05
Time = 0.00051s

Qdot = 7025.24, T = 800.001, p = 5.06625e+06, H = 1.22048e-15
ExecutionTime = 2.54753 s  ClockTime = 3 s

deltaT = 1e-05
Time = 0.00052s

Qdot = 7455.24, T = 800.001, p = 5.06625e+06, H = 1.30035e-15
ExecutionTime = 2.57672 s  ClockTime = 3 s

deltaT = 1e-05
Time = 0.00053s

Qdot = 7911.46, T = 800.001, p = 5.06625e+06, H = 1.38492e-15
ExecutionTime = 2.60655 s  ClockTime = 3 s

deltaT = 1e-05
Time = 0.00054s

Qdot = 8393.5, T = 800.001, p = 5.06625e+06, H = 1.47447e-15
ExecutionTime = 2.63794 s  ClockTime = 3 s

deltaT = 1e-05
Time = 0.00055s

Qdot = 8904.29, T = 800.001, p = 5.06625e+06, H = 1.5693e-15
ExecutionTime = 2.67182 s  ClockTime = 3 s

deltaT = 1e-05
Time = 0.00056s

Qdot = 9444.22, T = 800.001, p = 5.06625e+06, H = 1.66969e-15
ExecutionTime = 2.70508 s  ClockTime = 3 s

deltaT = 1e-05
Time = 0.00057s

Qdot = 10016.8, T = 800.001, p = 5.06625e+06, H = 1.77599e-15
ExecutionTime = 2.73613 s  ClockTime = 3 s

deltaT = 1e-05
Time = 0.00058s

Qdot = 10622.2, T = 800.001, p = 5.06625e+06, H = 1.88852e-15
ExecutionTime = 2.77024 s  ClockTime = 3 s

deltaT = 1e-05
Time = 0.00059s

Qdot = 11265.1, T = 800.001, p = 5.06625e+06, H = 2.00774e-15
ExecutionTime = 2.80317 s  ClockTime = 3 s

deltaT = 1e-05
Time = 0.0006s

Qdot = 11946.5, T = 800.002, p = 5.06625e+06, H = 2.1339e-15
ExecutionTime = 2.84098 s  ClockTime = 3 s

deltaT = 1e-05
Time = 0.00061s

Qdot = 12665.5, T = 800.002, p = 5.06625e+06, H = 2.26745e-15
ExecutionTime = 2.87861 s  ClockTime = 3 s

deltaT = 1e-05
Time = 0.00062s

Qdot = 13426.8, T = 800.002, p = 5.06625e+06, H = 2.40882e-15
ExecutionTime = 2.91418 s  ClockTime = 3 s

deltaT = 1e-05
Time = 0.00063s

Qdot = 14233.8, T = 800.002, p = 5.06625e+06, H = 2.55848e-15
ExecutionTime = 2.95163 s  ClockTime = 3 s

deltaT = 1e-05
Time = 0.00064s

Qdot = 15086.9, T = 800.002, p = 5.06625e+06, H = 2.71691e-15
ExecutionTime = 2.98593 s  ClockTime = 3 s

deltaT = 1e-05
Time = 0.00065s

Qdot = 15992.4, T = 800.002, p = 5.06625e+06, H = 2.88462e-15
ExecutionTime = 3.02443 s  ClockTime = 3 s

deltaT = 1e-05
Time = 0.00066s

Qdot = 16949.1, T = 800.002, p = 5.06625e+06, H = 3.06216e-15
ExecutionTime = 3.05808 s  ClockTime = 3 s

deltaT = 1e-05
Time = 0.00067s

Qdot = 17964.3, T = 800.002, p = 5.06625e+06, H = 3.25009e-15
ExecutionTime = 3.09255 s  ClockTime = 3 s

deltaT = 1e-05
Time = 0.00068s

Qdot = 19037.1, T = 800.003, p = 5.06625e+06, H = 3.44902e-15
ExecutionTime = 3.12597 s  ClockTime = 3 s

deltaT = 1e-05
Time = 0.00069s

Qdot = 20176, T = 800.003, p = 5.06625e+06, H = 3.65961e-15
ExecutionTime = 3.16466 s  ClockTime = 3 s

deltaT = 1e-05
Time = 0.0007s

Qdot = 21380, T = 800.003, p = 5.06625e+06, H = 3.88251e-15
ExecutionTime = 3.20067 s  ClockTime = 3 s

deltaT = 1e-05
Time = 0.00071s

Qdot = 22656.2, T = 800.003, p = 5.06625e+06, H = 4.11848e-15
ExecutionTime = 3.23693 s  ClockTime = 3 s

deltaT = 1e-05
Time = 0.00072s

Qdot = 24006.6, T = 800.003, p = 5.06625e+06, H = 4.36824e-15
ExecutionTime = 3.27469 s  ClockTime = 3 s

deltaT = 1e-05
Time = 0.00073s

Qdot = 25439.2, T = 800.003, p = 5.06625e+06, H = 4.63263e-15
ExecutionTime = 3.30854 s  ClockTime = 3 s

deltaT = 1e-05
Time = 0.00074s

Qdot = 26954.1, T = 800.004, p = 5.06625e+06, H = 4.91249e-15
ExecutionTime = 3.34071 s  ClockTime = 4 s

deltaT = 1e-05
Time = 0.00075s

Qdot = 28562.2, T = 800.004, p = 5.06625e+06, H = 5.20873e-15
ExecutionTime = 3.37562 s  ClockTime = 4 s

deltaT = 1e-05
Time = 0.00076s

Qdot = 30260.9, T = 800.004, p = 5.06625e+06, H = 5.52232e-15
ExecutionTime = 3.40982 s  ClockTime = 4 s

deltaT = 1e-05
Time = 0.00077s

Qdot = 32065.2, T = 800.004, p = 5.06625e+06, H = 5.85426e-15
ExecutionTime = 3.44676 s  ClockTime = 4 s

deltaT = 1e-05
Time = 0.00078s

Qdot = 33973.8, T = 800.005, p = 5.06625e+06, H = 6.20561e-15
ExecutionTime = 3.48305 s  ClockTime = 4 s

deltaT = 1e-05
Time = 0.00079s

Qdot = 35998.8, T = 800.005, p = 5.06625e+06, H = 6.57913e-15
ExecutionTime = 3.51683 s  ClockTime = 4 s

deltaT = 1e-05
Time = 0.0008s

Qdot = 38140.1, T = 800.005, p = 5.06625e+06, H = 6.97344e-15
ExecutionTime = 3.5487 s  ClockTime = 4 s

deltaT = 1e-05
Time = 0.00081s

Qdot = 40413.6, T = 800.006, p = 5.06625e+06, H = 7.39076e-15
ExecutionTime = 3.58108 s  ClockTime = 4 s

deltaT = 1e-05
Time = 0.00082s

Qdot = 42818.3, T = 800.006, p = 5.06625e+06, H = 7.8365e-15
ExecutionTime = 3.61781 s  ClockTime = 4 s

deltaT = 1e-05
Time = 0.00083s

Qdot = 45368.3, T = 800.006, p = 5.06625e+06, H = 8.3e-15
ExecutionTime = 3.65255 s  ClockTime = 4 s

deltaT = 1e-05
Time = 0.00084s

Qdot = 48065.4, T = 800.007, p = 5.06625e+06, H = 8.7949e-15
ExecutionTime = 3.69487 s  ClockTime = 4 s

deltaT = 1e-05
Time = 0.00085s

Qdot = 50929.8, T = 800.007, p = 5.06625e+06, H = 9.31879e-15
ExecutionTime = 3.73388 s  ClockTime = 4 s

deltaT = 1e-05
Time = 0.00086s

Qdot = 53960.2, T = 800.008, p = 5.06625e+06, H = 9.87861e-15
ExecutionTime = 3.7825 s  ClockTime = 4 s

deltaT = 1e-05
Time = 0.00087s

Qdot = 57172.4, T = 800.008, p = 5.06625e+06, H = 1.04604e-14
ExecutionTime = 3.82276 s  ClockTime = 4 s

deltaT = 1e-05
Time = 0.00088s

Qdot = 60570.9, T = 800.009, p = 5.06625e+06, H = 1.10819e-14
ExecutionTime = 3.85697 s  ClockTime = 4 s

deltaT = 1e-05
Time = 0.00089s

Qdot = 64181.1, T = 800.009, p = 5.06625e+06, H = 1.17462e-14
ExecutionTime = 3.89299 s  ClockTime = 4 s

deltaT = 1e-05
Time = 0.0009s

Qdot = 67993, T = 800.01, p = 5.06625e+06, H = 1.24363e-14
ExecutionTime = 3.92981 s  ClockTime = 4 s

deltaT = 1e-05
Time = 0.00091s

Qdot = 72046.2, T = 800.01, p = 5.06625e+06, H = 1.31807e-14
ExecutionTime = 3.96889 s  ClockTime = 4 s

deltaT = 1e-05
Time = 0.00092s

Qdot = 76325.8, T = 800.011, p = 5.06625e+06, H = 1.3954e-14
ExecutionTime = 4.01424 s  ClockTime = 4 s

deltaT = 1e-05
Time = 0.00093s

Qdot = 80873.3, T = 800.011, p = 5.06625e+06, H = 1.47884e-14
ExecutionTime = 4.05205 s  ClockTime = 4 s

deltaT = 1e-05
Time = 0.00094s

Qdot = 85678.8, T = 800.012, p = 5.06625e+06, H = 1.56548e-14
ExecutionTime = 4.08695 s  ClockTime = 4 s

deltaT = 1e-05
Time = 0.00095s

Qdot = 90778.4, T = 800.013, p = 5.06625e+06, H = 1.659e-14
ExecutionTime = 4.12452 s  ClockTime = 4 s

deltaT = 1e-05
Time = 0.00096s

Qdot = 96166.4, T = 800.014, p = 5.06625e+06, H = 1.75606e-14
ExecutionTime = 4.15933 s  ClockTime = 4 s

deltaT = 1e-05
Time = 0.00097s

Qdot = 101894, T = 800.014, p = 5.06625e+06, H = 1.86089e-14
ExecutionTime = 4.19261 s  ClockTime = 4 s

deltaT = 1e-05
Time = 0.00098s

Qdot = 107941, T = 800.015, p = 5.06625e+06, H = 1.96959e-14
ExecutionTime = 4.22587 s  ClockTime = 4 s

deltaT = 1e-05
Time = 0.00099s

Qdot = 114359, T = 800.016, p = 5.06625e+06, H = 2.0871e-14
ExecutionTime = 4.25839 s  ClockTime = 4 s

deltaT = 1e-05
Time = 0.001s

Qdot = 121149, T = 800.017, p = 5.06625e+06, H = 2.21049e-14
ExecutionTime = 4.32013 s  ClockTime = 5 s

deltaT = 1e-05
Time = 0.00101s

Qdot = 128352, T = 800.018, p = 5.06625e+06, H = 2.34119e-14
ExecutionTime = 4.36206 s  ClockTime = 5 s

deltaT = 1e-05
Time = 0.00102s

Qdot = 135956, T = 800.019, p = 5.06625e+06, H = 2.47918e-14
ExecutionTime = 4.39614 s  ClockTime = 5 s

deltaT = 1e-05
Time = 0.00103s

Qdot = 144025, T = 800.021, p = 5.06625e+06, H = 2.62527e-14
ExecutionTime = 4.42866 s  ClockTime = 5 s

deltaT = 1e-05
Time = 0.00104s

Qdot = 152553, T = 800.022, p = 5.06625e+06, H = 2.77986e-14
ExecutionTime = 4.46044 s  ClockTime = 5 s

deltaT = 1e-05
Time = 0.00105s

Qdot = 161605, T = 800.023, p = 5.06625e+06, H = 2.94347e-14
ExecutionTime = 4.49258 s  ClockTime = 5 s

deltaT = 1e-05
Time = 0.00106s

Qdot = 171148, T = 800.024, p = 5.06625e+06, H = 3.11667e-14
ExecutionTime = 4.5245 s  ClockTime = 5 s

deltaT = 1e-05
Time = 0.00107s

Qdot = 181278, T = 800.026, p = 5.06625e+06, H = 3.29992e-14
ExecutionTime = 4.55657 s  ClockTime = 5 s

deltaT = 1e-05
Time = 0.00108s

Qdot = 192000, T = 800.028, p = 5.06625e+06, H = 3.49275e-14
ExecutionTime = 4.58941 s  ClockTime = 5 s

deltaT = 1e-05
Time = 0.00109s

Qdot = 203343, T = 800.029, p = 5.06625e+06, H = 3.69786e-14
ExecutionTime = 4.62182 s  ClockTime = 5 s

deltaT = 1e-05
Time = 0.0011s

Qdot = 215322, T = 800.031, p = 5.06625e+06, H = 3.91489e-14
ExecutionTime = 4.65427 s  ClockTime = 5 s

deltaT = 1e-05
Time = 0.00111s

Qdot = 228023, T = 800.033, p = 5.06625e+06, H = 4.14452e-14
ExecutionTime = 4.68731 s  ClockTime = 5 s

deltaT = 1e-05
Time = 0.00112s

Qdot = 241432, T = 800.035, p = 5.06625e+06, H = 4.38746e-14
ExecutionTime = 4.7224 s  ClockTime = 5 s

deltaT = 1e-05
Time = 0.00113s

Qdot = 255638, T = 800.037, p = 5.06625e+06, H = 4.64448e-14
ExecutionTime = 4.75509 s  ClockTime = 5 s

deltaT = 1e-05
Time = 0.00114s

Qdot = 270632, T = 800.039, p = 5.06625e+06, H = 4.91637e-14
ExecutionTime = 4.78742 s  ClockTime = 5 s

deltaT = 1e-05
Time = 0.00115s

Qdot = 286528, T = 800.041, p = 5.06625e+06, H = 5.20396e-14
ExecutionTime = 4.82013 s  ClockTime = 5 s

deltaT = 1e-05
Time = 0.00116s

Qdot = 303286, T = 800.044, p = 5.06625e+06, H = 5.50815e-14
ExecutionTime = 4.8542 s  ClockTime = 5 s

deltaT = 1e-05
Time = 0.00117s

Qdot = 321050, T = 800.046, p = 5.06625e+06, H = 5.82987e-14
ExecutionTime = 4.88785 s  ClockTime = 5 s

deltaT = 1e-05
Time = 0.00118s

Qdot = 339788, T = 800.049, p = 5.06625e+06, H = 6.1701e-14
ExecutionTime = 4.92191 s  ClockTime = 5 s

deltaT = 1e-05
Time = 0.00119s

Qdot = 359626, T = 800.052, p = 5.06625e+06, H = 6.52991e-14
ExecutionTime = 4.95484 s  ClockTime = 5 s

deltaT = 1e-05
Time = 0.0012s

Qdot = 380547, T = 800.055, p = 5.06625e+06, H = 6.91036e-14
ExecutionTime = 4.98766 s  ClockTime = 5 s

deltaT = 1e-05
Time = 0.00121s

Qdot = 402710, T = 800.058, p = 5.06625e+06, H = 7.31265e-14
ExecutionTime = 5.0203 s  ClockTime = 5 s

deltaT = 1e-05
Time = 0.00122s

Qdot = 426056, T = 800.062, p = 5.06625e+06, H = 7.73797e-14
ExecutionTime = 5.05277 s  ClockTime = 5 s

deltaT = 1e-05
Time = 0.00123s

Qdot = 450772, T = 800.065, p = 5.06625e+06, H = 8.18763e-14
ExecutionTime = 5.08501 s  ClockTime = 5 s

deltaT = 1e-05
Time = 0.00124s

Qdot = 476808, T = 800.069, p = 5.06625e+06, H = 8.66303e-14
ExecutionTime = 5.11796 s  ClockTime = 5 s

deltaT = 1e-05
Time = 0.00125s

Qdot = 504363, T = 800.073, p = 5.06625e+06, H = 9.16552e-14
ExecutionTime = 5.15076 s  ClockTime = 5 s

deltaT = 1e-05
Time = 0.00126s

Qdot = 533386, T = 800.078, p = 5.06625e+06, H = 9.69662e-14
ExecutionTime = 5.18461 s  ClockTime = 5 s

deltaT = 1e-05
Time = 0.00127s

Qdot = 564078, T = 800.082, p = 5.06625e+06, H = 1.0258e-13
ExecutionTime = 5.21745 s  ClockTime = 5 s

deltaT = 1e-05
Time = 0.00128s

Qdot = 596369, T = 800.087, p = 5.06625e+06, H = 1.08512e-13
ExecutionTime = 5.25125 s  ClockTime = 5 s

deltaT = 1e-05
Time = 0.00129s

Qdot = 630513, T = 800.092, p = 5.06625e+06, H = 1.14781e-13
ExecutionTime = 5.28421 s  ClockTime = 5 s

deltaT = 1e-05
Time = 0.0013s

Qdot = 666442, T = 800.097, p = 5.06625e+06, H = 1.21406e-13
ExecutionTime = 5.31781 s  ClockTime = 6 s

deltaT = 1e-05
Time = 0.00131s

Qdot = 704407, T = 800.103, p = 5.06625e+06, H = 1.28406e-13
ExecutionTime = 5.3511 s  ClockTime = 6 s

deltaT = 1e-05
Time = 0.00132s

Qdot = 744295, T = 800.109, p = 5.06625e+06, H = 1.35799e-13
ExecutionTime = 5.38563 s  ClockTime = 6 s

deltaT = 1e-05
Time = 0.00133s

Qdot = 786475, T = 800.115, p = 5.06625e+06, H = 1.43612e-13
ExecutionTime = 5.42072 s  ClockTime = 6 s

deltaT = 1e-05
Time = 0.00134s

Qdot = 830769, T = 800.122, p = 5.06625e+06, H = 1.51866e-13
ExecutionTime = 5.45507 s  ClockTime = 6 s

deltaT = 1e-05
Time = 0.00135s

Qdot = 877549, T = 800.129, p = 5.06625e+06, H = 1.60585e-13
ExecutionTime = 5.48896 s  ClockTime = 6 s

deltaT = 1e-05
Time = 0.00136s

Qdot = 926711, T = 800.137, p = 5.06625e+06, H = 1.69795e-13
ExecutionTime = 5.52252 s  ClockTime = 6 s

deltaT = 1e-05
Time = 0.00137s

Qdot = 978544, T = 800.145, p = 5.06625e+06, H = 1.79523e-13
ExecutionTime = 5.55635 s  ClockTime = 6 s

deltaT = 1e-05
Time = 0.00138s

Qdot = 1.03297e+06, T = 800.153, p = 5.06625e+06, H = 1.89797e-13
ExecutionTime = 5.59071 s  ClockTime = 6 s

deltaT = 1e-05
Time = 0.00139s

Qdot = 1.0904e+06, T = 800.162, p = 5.06625e+06, H = 2.00649e-13
ExecutionTime = 5.62491 s  ClockTime = 6 s

deltaT = 1e-05
Time = 0.0014s

Qdot = 1.15062e+06, T = 800.171, p = 5.06625e+06, H = 2.12109e-13
ExecutionTime = 5.65895 s  ClockTime = 6 s

deltaT = 1e-05
Time = 0.00141s

Qdot = 1.21412e+06, T = 800.181, p = 5.06625e+06, H = 2.24213e-13
ExecutionTime = 5.694 s  ClockTime = 6 s

deltaT = 1e-05
Time = 0.00142s

Qdot = 1.281e+06, T = 800.191, p = 5.06625e+06, H = 2.38646e-13
ExecutionTime = 5.73522 s  ClockTime = 6 s

deltaT = 1e-05
Time = 0.00143s

Qdot = 1.35099e+06, T = 800.202, p = 5.06625e+06, H = 2.52322e-13
ExecutionTime = 5.77013 s  ClockTime = 6 s

deltaT = 1e-05
Time = 0.00144s

Qdot = 1.42481e+06, T = 800.214, p = 5.06625e+06, H = 2.66779e-13
ExecutionTime = 5.80536 s  ClockTime = 6 s

deltaT = 1e-05
Time = 0.00145s

Qdot = 1.50221e+06, T = 800.226, p = 5.06625e+06, H = 2.82055e-13
ExecutionTime = 5.84046 s  ClockTime = 6 s

deltaT = 1e-05
Time = 0.00146s

Qdot = 1.58336e+06, T = 800.239, p = 5.06625e+06, H = 2.98196e-13
ExecutionTime = 5.87572 s  ClockTime = 6 s

deltaT = 1e-05
Time = 0.00147s

Qdot = 1.66897e+06, T = 800.252, p = 5.06625e+06, H = 3.15281e-13
ExecutionTime = 5.91125 s  ClockTime = 6 s

deltaT = 1e-05
Time = 0.00148s

Qdot = 1.75856e+06, T = 800.266, p = 5.06625e+06, H = 3.33313e-13
ExecutionTime = 5.94709 s  ClockTime = 6 s

deltaT = 1e-05
Time = 0.00149s

Qdot = 1.85279e+06, T = 800.281, p = 5.06625e+06, H = 3.52371e-13
ExecutionTime = 5.98258 s  ClockTime = 6 s

deltaT = 1e-05
Time = 0.0015s

Qdot = 1.95147e+06, T = 800.297, p = 5.06625e+06, H = 3.7251e-13
ExecutionTime = 6.04013 s  ClockTime = 6 s

deltaT = 1e-05
Time = 0.00151s

Qdot = 2.0553e+06, T = 800.314, p = 5.06625e+06, H = 3.93806e-13
ExecutionTime = 6.0836 s  ClockTime = 6 s

deltaT = 1e-05
Time = 0.00152s

Qdot = 2.16409e+06, T = 800.331, p = 5.06625e+06, H = 4.16352e-13
ExecutionTime = 6.12892 s  ClockTime = 6 s

deltaT = 1e-05
Time = 0.00153s

Qdot = 2.27863e+06, T = 800.349, p = 5.06625e+06, H = 4.40133e-13
ExecutionTime = 6.16629 s  ClockTime = 6 s

deltaT = 1e-05
Time = 0.00154s

Qdot = 2.39791e+06, T = 800.369, p = 5.06625e+06, H = 4.65281e-13
ExecutionTime = 6.2039 s  ClockTime = 6 s

deltaT = 1e-05
Time = 0.00155s

Qdot = 2.52359e+06, T = 800.389, p = 5.06625e+06, H = 4.91869e-13
ExecutionTime = 6.24118 s  ClockTime = 6 s

deltaT = 1e-05
Time = 0.00156s

Qdot = 2.65506e+06, T = 800.411, p = 5.06625e+06, H = 5.19978e-13
ExecutionTime = 6.28004 s  ClockTime = 6 s

deltaT = 1e-05
Time = 0.00157s

Qdot = 2.79324e+06, T = 800.433, p = 5.06625e+06, H = 5.49701e-13
ExecutionTime = 6.3188 s  ClockTime = 7 s

deltaT = 1e-05
Time = 0.00158s

Qdot = 2.93772e+06, T = 800.457, p = 5.06625e+06, H = 5.81129e-13
ExecutionTime = 6.35801 s  ClockTime = 7 s

deltaT = 1e-05
Time = 0.00159s

Qdot = 3.08958e+06, T = 800.482, p = 5.06625e+06, H = 6.14373e-13
ExecutionTime = 6.39493 s  ClockTime = 7 s

deltaT = 1e-05
Time = 0.0016s

Qdot = 3.24831e+06, T = 800.508, p = 5.06625e+06, H = 6.4953e-13
ExecutionTime = 6.43124 s  ClockTime = 7 s

deltaT = 1e-05
Time = 0.00161s

Qdot = 3.41525e+06, T = 800.536, p = 5.06625e+06, H = 6.867e-13
ExecutionTime = 6.46583 s  ClockTime = 7 s

deltaT = 1e-05
Time = 0.00162s

Qdot = 3.5895e+06, T = 800.565, p = 5.06625e+06, H = 7.2604e-13
ExecutionTime = 6.5013 s  ClockTime = 7 s

deltaT = 1e-05
Time = 0.00163s

Qdot = 3.77282e+06, T = 800.595, p = 5.06625e+06, H = 7.68148e-13
ExecutionTime = 6.5367 s  ClockTime = 7 s

deltaT = 1e-05
Time = 0.00164s

Qdot = 3.9643e+06, T = 800.627, p = 5.06625e+06, H = 8.12322e-13
ExecutionTime = 6.57342 s  ClockTime = 7 s

deltaT = 1e-05
Time = 0.00165s

Qdot = 4.16538e+06, T = 800.661, p = 5.06625e+06, H = 8.59014e-13
ExecutionTime = 6.61034 s  ClockTime = 7 s

deltaT = 1e-05
Time = 0.00166s

Qdot = 4.37528e+06, T = 800.696, p = 5.06625e+06, H = 9.08418e-13
ExecutionTime = 6.64727 s  ClockTime = 7 s

deltaT = 1e-05
Time = 0.00167s

Qdot = 4.59586e+06, T = 800.733, p = 5.06625e+06, H = 9.60726e-13
ExecutionTime = 6.68234 s  ClockTime = 7 s

deltaT = 1e-05
Time = 0.00168s

Qdot = 4.82618e+06, T = 800.772, p = 5.06625e+06, H = 1.01606e-12
ExecutionTime = 6.71748 s  ClockTime = 7 s

deltaT = 1e-05
Time = 0.00169s

Qdot = 5.06871e+06, T = 800.813, p = 5.06625e+06, H = 1.07473e-12
ExecutionTime = 6.76172 s  ClockTime = 7 s

deltaT = 1e-05
Time = 0.0017s

Qdot = 5.32052e+06, T = 800.856, p = 5.06625e+06, H = 1.13671e-12
ExecutionTime = 6.79843 s  ClockTime = 7 s

deltaT = 1e-05
Time = 0.00171s

Qdot = 5.58667e+06, T = 800.901, p = 5.06625e+06, H = 1.20264e-12
ExecutionTime = 6.87647 s  ClockTime = 7 s

deltaT = 5e-06
Time = 0.001715s

Qdot = 5.79291e+06, T = 800.924, p = 5.06625e+06, H = 1.23698e-12
ExecutionTime = 6.9162 s  ClockTime = 7 s

deltaT = 6.33333e-06
Time = 0.00172133s

Qdot = 5.95483e+06, T = 800.955, p = 5.06625e+06, H = 1.28194e-12
ExecutionTime = 6.96097 s  ClockTime = 7 s

deltaT = 9.95238e-06
Time = 0.00173129s

Qdot = 6.19309e+06, T = 801.005, p = 5.06625e+06, H = 1.35584e-12
ExecutionTime = 6.99969 s  ClockTime = 7 s

deltaT = 9.95238e-06
Time = 0.00174124s

Qdot = 6.49733e+06, T = 801.057, p = 5.06625e+06, H = 1.43421e-12
ExecutionTime = 7.03588 s  ClockTime = 7 s

deltaT = 9.95238e-06
Time = 0.00175119s

Qdot = 6.81509e+06, T = 801.112, p = 5.06625e+06, H = 1.51721e-12
ExecutionTime = 7.07236 s  ClockTime = 7 s

deltaT = 9.95238e-06
Time = 0.00176114s

Qdot = 7.14773e+06, T = 801.169, p = 5.06625e+06, H = 1.60515e-12
ExecutionTime = 7.10837 s  ClockTime = 7 s

deltaT = 9.95238e-06
Time = 0.0017711s

Qdot = 7.49503e+06, T = 801.229, p = 5.06625e+06, H = 1.6983e-12
ExecutionTime = 7.1445 s  ClockTime = 7 s

deltaT = 9.95238e-06
Time = 0.00178105s

Qdot = 7.85846e+06, T = 801.292, p = 5.06625e+06, H = 1.79701e-12
ExecutionTime = 7.18277 s  ClockTime = 7 s

deltaT = 9.95238e-06
Time = 0.001791s

Qdot = 8.23789e+06, T = 801.359, p = 5.06625e+06, H = 1.90158e-12
ExecutionTime = 7.22012 s  ClockTime = 7 s

deltaT = 9.95238e-06
Time = 0.00180095s

Qdot = 8.63469e+06, T = 801.428, p = 5.06625e+06, H = 2.01243e-12
ExecutionTime = 7.25677 s  ClockTime = 7 s

deltaT = 9.95238e-06
Time = 0.0018109s

Qdot = 9.04855e+06, T = 801.501, p = 5.06625e+06, H = 2.12984e-12
ExecutionTime = 7.29283 s  ClockTime = 7 s

deltaT = 9.95238e-06
Time = 0.00182086s

Qdot = 9.48146e+06, T = 801.577, p = 5.06625e+06, H = 2.25429e-12
ExecutionTime = 7.32877 s  ClockTime = 8 s

deltaT = 9.95238e-06
Time = 0.00183081s

Qdot = 9.93264e+06, T = 801.657, p = 5.06625e+06, H = 2.38612e-12
ExecutionTime = 7.36525 s  ClockTime = 8 s

deltaT = 9.95238e-06
Time = 0.00184076s

Qdot = 1.04052e+07, T = 801.74, p = 5.06625e+06, H = 2.52591e-12
ExecutionTime = 7.40261 s  ClockTime = 8 s

deltaT = 9.95238e-06
Time = 0.00185071s

Qdot = 1.08945e+07, T = 801.828, p = 5.06625e+06, H = 2.67388e-12
ExecutionTime = 7.43924 s  ClockTime = 8 s

deltaT = 9.95238e-06
Time = 0.00186067s

Qdot = 1.1408e+07, T = 801.919, p = 5.06625e+06, H = 2.83078e-12
ExecutionTime = 7.47581 s  ClockTime = 8 s

deltaT = 9.95238e-06
Time = 0.00187062s

Qdot = 1.19431e+07, T = 802.015, p = 5.06625e+06, H = 2.99697e-12
ExecutionTime = 7.5133 s  ClockTime = 8 s

deltaT = 9.95238e-06
Time = 0.00188057s

Qdot = 1.24981e+07, T = 802.116, p = 5.06625e+06, H = 3.173e-12
ExecutionTime = 7.55083 s  ClockTime = 8 s

deltaT = 9.95238e-06
Time = 0.00189052s

Qdot = 1.30792e+07, T = 802.221, p = 5.06625e+06, H = 3.35945e-12
ExecutionTime = 7.58847 s  ClockTime = 8 s

deltaT = 9.95238e-06
Time = 0.00190048s

Qdot = 1.36809e+07, T = 802.331, p = 5.06625e+06, H = 3.5569e-12
ExecutionTime = 7.62709 s  ClockTime = 8 s

deltaT = 9.95238e-06
Time = 0.00191043s

Qdot = 1.43099e+07, T = 802.446, p = 5.06625e+06, H = 3.76603e-12
ExecutionTime = 7.66464 s  ClockTime = 8 s

deltaT = 9.95238e-06
Time = 0.00192038s

Qdot = 1.49608e+07, T = 802.566, p = 5.06625e+06, H = 3.98735e-12
ExecutionTime = 7.70184 s  ClockTime = 8 s

deltaT = 9.95238e-06
Time = 0.00193033s

Qdot = 1.564e+07, T = 802.692, p = 5.06625e+06, H = 4.22164e-12
ExecutionTime = 7.73875 s  ClockTime = 8 s

deltaT = 9.95238e-06
Time = 0.00194029s

Qdot = 1.63447e+07, T = 802.823, p = 5.06625e+06, H = 4.47096e-12
ExecutionTime = 7.77495 s  ClockTime = 8 s

deltaT = 9.95238e-06
Time = 0.00195024s

Qdot = 1.70783e+07, T = 802.96, p = 5.06625e+06, H = 4.73359e-12
ExecutionTime = 7.84715 s  ClockTime = 8 s

deltaT = 4.97619e-06
Time = 0.00195521s

Qdot = 1.76408e+07, T = 803.031, p = 5.06625e+06, H = 4.87032e-12
ExecutionTime = 7.88513 s  ClockTime = 8 s

deltaT = 8.95714e-06
Time = 0.00196417s

Qdot = 1.81847e+07, T = 803.163, p = 5.06625e+06, H = 5.12625e-12
ExecutionTime = 7.96115 s  ClockTime = 8 s

deltaT = 4.47857e-06
Time = 0.00196865s

Qdot = 1.87246e+07, T = 803.23, p = 5.06625e+06, H = 5.26048e-12
ExecutionTime = 8.01737 s  ClockTime = 8 s

deltaT = 7.8375e-06
Time = 0.00197649s

Qdot = 1.92211e+07, T = 803.352, p = 5.06625e+06, H = 5.50038e-12
ExecutionTime = 8.0572 s  ClockTime = 8 s

deltaT = 7.8375e-06
Time = 0.00198432s

Qdot = 1.98781e+07, T = 803.478, p = 5.06625e+06, H = 5.75176e-12
ExecutionTime = 8.09571 s  ClockTime = 8 s

deltaT = 7.8375e-06
Time = 0.00199216s

Qdot = 2.05448e+07, T = 803.608, p = 5.06625e+06, H = 6.01408e-12
ExecutionTime = 8.14306 s  ClockTime = 8 s

deltaT = 7.8375e-06
Time = 0.002s

Qdot = 2.12358e+07, T = 803.742, p = 5.06625e+06, H = 6.2876e-12
ExecutionTime = 8.26552 s  ClockTime = 8 s

deltaT = 9.80392e-06
Time = 0.0020098s

Qdot = 2.20312e+07, T = 803.916, p = 5.06625e+06, H = 6.64626e-12
ExecutionTime = 8.35912 s  ClockTime = 9 s

deltaT = 9.80392e-06
Time = 0.00201961s

Qdot = 2.29499e+07, T = 804.098, p = 5.06625e+06, H = 7.02498e-12
ExecutionTime = 8.49846 s  ClockTime = 9 s

deltaT = 9.80392e-06
Time = 0.00202941s

Qdot = 2.38815e+07, T = 804.287, p = 5.06625e+06, H = 7.42257e-12
ExecutionTime = 8.57541 s  ClockTime = 9 s

deltaT = 4.90196e-06
Time = 0.00203431s

Qdot = 2.46031e+07, T = 804.384, p = 5.06625e+06, H = 7.62943e-12
ExecutionTime = 8.61351 s  ClockTime = 9 s

deltaT = 9.7018e-06
Time = 0.00204402s

Qdot = 2.53305e+07, T = 804.583, p = 5.06625e+06, H = 8.05866e-12
ExecutionTime = 8.65228 s  ClockTime = 9 s

deltaT = 9.91271e-06
Time = 0.00205393s

Qdot = 2.6343e+07, T = 804.794, p = 5.06625e+06, H = 8.51569e-12
ExecutionTime = 8.69848 s  ClockTime = 9 s

deltaT = 9.91271e-06
Time = 0.00206384s

Qdot = 2.73794e+07, T = 805.013, p = 5.06625e+06, H = 8.99657e-12
ExecutionTime = 8.84083 s  ClockTime = 9 s

deltaT = 9.91271e-06
Time = 0.00207375s

Qdot = 2.84522e+07, T = 805.24, p = 5.06625e+06, H = 9.50046e-12
ExecutionTime = 8.95538 s  ClockTime = 9 s

deltaT = 9.91271e-06
Time = 0.00208367s

Qdot = 2.95444e+07, T = 805.477, p = 5.06625e+06, H = 1.00294e-11
ExecutionTime = 9.00022 s  ClockTime = 9 s

deltaT = 9.91271e-06
Time = 0.00209358s

Qdot = 3.0668e+07, T = 805.722, p = 5.06625e+06, H = 1.05842e-11
ExecutionTime = 9.04483 s  ClockTime = 9 s

deltaT = 9.91271e-06
Time = 0.00210349s

Qdot = 3.18065e+07, T = 805.977, p = 5.06625e+06, H = 1.11656e-11
ExecutionTime = 9.09014 s  ClockTime = 9 s

deltaT = 9.91271e-06
Time = 0.0021134s

Qdot = 3.2976e+07, T = 806.241, p = 5.06625e+06, H = 1.17747e-11
ExecutionTime = 9.14161 s  ClockTime = 9 s

deltaT = 9.91271e-06
Time = 0.00212332s

Qdot = 3.416e+07, T = 806.514, p = 5.06625e+06, H = 1.24108e-11
ExecutionTime = 9.1874 s  ClockTime = 9 s

deltaT = 9.91271e-06
Time = 0.00213323s

Qdot = 3.53696e+07, T = 806.797, p = 5.06625e+06, H = 1.30762e-11
ExecutionTime = 9.23294 s  ClockTime = 9 s

deltaT = 9.91271e-06
Time = 0.00214314s

Qdot = 3.65919e+07, T = 807.09, p = 5.06625e+06, H = 1.37704e-11
ExecutionTime = 9.27866 s  ClockTime = 9 s

deltaT = 9.91271e-06
Time = 0.00215306s

Qdot = 3.78374e+07, T = 807.392, p = 5.06625e+06, H = 1.44944e-11
ExecutionTime = 9.32996 s  ClockTime = 10 s

deltaT = 9.91271e-06
Time = 0.00216297s

Qdot = 3.90911e+07, T = 807.705, p = 5.06625e+06, H = 1.52476e-11
ExecutionTime = 9.37503 s  ClockTime = 10 s

deltaT = 9.91271e-06
Time = 0.00217288s

Qdot = 4.03642e+07, T = 808.028, p = 5.06625e+06, H = 1.60317e-11
ExecutionTime = 9.42084 s  ClockTime = 10 s

deltaT = 9.91271e-06
Time = 0.00218279s

Qdot = 4.16435e+07, T = 808.361, p = 5.06625e+06, H = 1.68457e-11
ExecutionTime = 9.46692 s  ClockTime = 10 s

deltaT = 9.91271e-06
Time = 0.00219271s

Qdot = 4.29353e+07, T = 808.705, p = 5.06625e+06, H = 1.76927e-11
ExecutionTime = 9.52308 s  ClockTime = 10 s

deltaT = 9.91271e-06
Time = 0.00220262s

Qdot = 4.42299e+07, T = 809.058, p = 5.06625e+06, H = 1.8568e-11
ExecutionTime = 9.68669 s  ClockTime = 10 s

deltaT = 9.91271e-06
Time = 0.00221253s

Qdot = 4.55333e+07, T = 809.423, p = 5.06625e+06, H = 1.94739e-11
ExecutionTime = 9.7315 s  ClockTime = 10 s

deltaT = 9.91271e-06
Time = 0.00222244s

Qdot = 4.68339e+07, T = 809.797, p = 5.06625e+06, H = 2.04124e-11
ExecutionTime = 9.89867 s  ClockTime = 10 s

deltaT = 9.91271e-06
Time = 0.00223236s

Qdot = 4.81347e+07, T = 810.182, p = 5.06625e+06, H = 2.13773e-11
ExecutionTime = 10.0375 s  ClockTime = 10 s

deltaT = 8.36385e-06
Time = 0.00224072s

Qdot = 4.9328e+07, T = 810.515, p = 5.06625e+06, H = 2.22159e-11
ExecutionTime = 10.1992 s  ClockTime = 10 s

deltaT = 9.97228e-06
Time = 0.00225069s

Qdot = 5.05255e+07, T = 810.921, p = 5.06625e+06, H = 2.32441e-11
ExecutionTime = 10.2584 s  ClockTime = 10 s

deltaT = 9.23359e-06
Time = 0.00225993s

Qdot = 5.17605e+07, T = 811.307, p = 5.06625e+06, H = 2.42187e-11
ExecutionTime = 10.3178 s  ClockTime = 11 s

deltaT = 1.00031e-05
Time = 0.00226993s

Qdot = 5.30099e+07, T = 811.735, p = 5.06625e+06, H = 2.53047e-11
ExecutionTime = 10.5431 s  ClockTime = 11 s

deltaT = 1.00031e-05
Time = 0.00227993s

Qdot = 5.42736e+07, T = 812.172, p = 5.06625e+06, H = 2.64165e-11
ExecutionTime = 10.5906 s  ClockTime = 11 s

deltaT = 1.00031e-05
Time = 0.00228994s

Qdot = 5.55341e+07, T = 812.62, p = 5.06625e+06, H = 2.75569e-11
ExecutionTime = 10.6525 s  ClockTime = 11 s

deltaT = 1.00031e-05
Time = 0.00229994s

Qdot = 5.6767e+07, T = 813.078, p = 5.06625e+06, H = 2.87167e-11
ExecutionTime = 10.7016 s  ClockTime = 11 s

deltaT = 1.00031e-05
Time = 0.00230994s

Qdot = 5.79799e+07, T = 813.546, p = 5.06625e+06, H = 2.99011e-11
ExecutionTime = 10.7505 s  ClockTime = 11 s

deltaT = 1.00031e-05
Time = 0.00231994s

Qdot = 5.91648e+07, T = 814.023, p = 5.06625e+06, H = 3.11088e-11
ExecutionTime = 10.7991 s  ClockTime = 11 s

deltaT = 1.00031e-05
Time = 0.00232995s

Qdot = 6.0325e+07, T = 814.509, p = 5.06625e+06, H = 3.23383e-11
ExecutionTime = 10.8463 s  ClockTime = 11 s

deltaT = 1.00031e-05
Time = 0.00233995s

Qdot = 6.14613e+07, T = 815.005, p = 5.06625e+06, H = 3.35856e-11
ExecutionTime = 10.8919 s  ClockTime = 11 s

deltaT = 1.00031e-05
Time = 0.00234995s

Qdot = 6.25628e+07, T = 815.509, p = 5.06625e+06, H = 3.48484e-11
ExecutionTime = 10.9382 s  ClockTime = 11 s

deltaT = 1.00031e-05
Time = 0.00235996s

Qdot = 6.3635e+07, T = 816.022, p = 5.06625e+06, H = 3.61285e-11
ExecutionTime = 10.9838 s  ClockTime = 11 s

deltaT = 1.00031e-05
Time = 0.00236996s

Qdot = 6.46751e+07, T = 816.543, p = 5.06625e+06, H = 3.74212e-11
ExecutionTime = 11.0289 s  ClockTime = 11 s

deltaT = 1.00031e-05
Time = 0.00237996s

Qdot = 6.56729e+07, T = 817.073, p = 5.06625e+06, H = 3.87229e-11
ExecutionTime = 11.0731 s  ClockTime = 11 s

deltaT = 1.00031e-05
Time = 0.00238997s

Qdot = 6.66505e+07, T = 817.61, p = 5.06625e+06, H = 4.00362e-11
ExecutionTime = 11.1184 s  ClockTime = 11 s

deltaT = 1.00031e-05
Time = 0.00239997s

Qdot = 6.75802e+07, T = 818.154, p = 5.06625e+06, H = 4.13565e-11
ExecutionTime = 11.1638 s  ClockTime = 11 s

deltaT = 1.00031e-05
Time = 0.00240997s

Qdot = 6.84747e+07, T = 818.706, p = 5.06625e+06, H = 4.26868e-11
ExecutionTime = 11.2793 s  ClockTime = 11 s

deltaT = 1.00031e-05
Time = 0.00241998s

Qdot = 6.93307e+07, T = 819.264, p = 5.06625e+06, H = 4.40168e-11
ExecutionTime = 11.3379 s  ClockTime = 12 s

deltaT = 1.00031e-05
Time = 0.00242998s

Qdot = 7.0153e+07, T = 819.829, p = 5.06625e+06, H = 4.53486e-11
ExecutionTime = 11.3963 s  ClockTime = 12 s

deltaT = 1.00031e-05
Time = 0.00243998s

Qdot = 7.09327e+07, T = 820.4, p = 5.06625e+06, H = 4.66781e-11
ExecutionTime = 11.5025 s  ClockTime = 12 s

deltaT = 1.00031e-05
Time = 0.00244998s

Qdot = 7.16872e+07, T = 820.977, p = 5.06625e+06, H = 4.80109e-11
ExecutionTime = 11.6703 s  ClockTime = 12 s

deltaT = 1.00031e-05
Time = 0.00245999s

Qdot = 7.23967e+07, T = 821.56, p = 5.06625e+06, H = 4.93359e-11
ExecutionTime = 11.7153 s  ClockTime = 12 s

deltaT = 1.00031e-05
Time = 0.00246999s

Qdot = 7.30755e+07, T = 822.148, p = 5.06625e+06, H = 5.06604e-11
ExecutionTime = 11.8313 s  ClockTime = 12 s

deltaT = 1.00031e-05
Time = 0.00247999s

Qdot = 7.37214e+07, T = 822.741, p = 5.06625e+06, H = 5.19742e-11
ExecutionTime = 11.8765 s  ClockTime = 12 s

deltaT = 1.00031e-05
Time = 0.00249s

Qdot = 7.4335e+07, T = 823.339, p = 5.06625e+06, H = 5.32794e-11
ExecutionTime = 12.0062 s  ClockTime = 12 s

deltaT = 1.00031e-05
Time = 0.0025s

Qdot = 7.49127e+07, T = 823.942, p = 5.06625e+06, H = 5.45798e-11
ExecutionTime = 12.0783 s  ClockTime = 12 s

deltaT = 1e-05
Time = 0.00251s

Qdot = 7.54626e+07, T = 824.548, p = 5.06625e+06, H = 5.58688e-11
ExecutionTime = 12.2013 s  ClockTime = 12 s

deltaT = 1e-05
Time = 0.00252s

Qdot = 7.59819e+07, T = 825.159, p = 5.06625e+06, H = 5.71427e-11
ExecutionTime = 12.3491 s  ClockTime = 13 s

deltaT = 8.13559e-06
Time = 0.00252814s

Qdot = 7.6435e+07, T = 825.659, p = 5.06625e+06, H = 5.81701e-11
ExecutionTime = 12.533 s  ClockTime = 13 s

deltaT = 9.83051e-06
Time = 0.00253797s

Qdot = 7.68446e+07, T = 826.266, p = 5.06625e+06, H = 5.93968e-11
ExecutionTime = 12.5813 s  ClockTime = 13 s

deltaT = 9.83051e-06
Time = 0.0025478s

Qdot = 7.7279e+07, T = 826.877, p = 5.06625e+06, H = 6.06094e-11
ExecutionTime = 12.7022 s  ClockTime = 13 s

deltaT = 9.83051e-06
Time = 0.00255763s

Qdot = 7.76787e+07, T = 827.49, p = 5.06625e+06, H = 6.18065e-11
ExecutionTime = 12.8322 s  ClockTime = 13 s

deltaT = 9.83051e-06
Time = 0.00256746s

Qdot = 7.80568e+07, T = 828.106, p = 5.06625e+06, H = 6.29292e-11
ExecutionTime = 12.9658 s  ClockTime = 13 s

deltaT = 9.83051e-06
Time = 0.00257729s

Qdot = 7.84065e+07, T = 828.725, p = 5.06625e+06, H = 6.40858e-11
ExecutionTime = 13.1489 s  ClockTime = 13 s

deltaT = 9.83051e-06
Time = 0.00258712s

Qdot = 7.87293e+07, T = 829.347, p = 5.06625e+06, H = 6.52192e-11
ExecutionTime = 13.2696 s  ClockTime = 13 s

deltaT = 9.83051e-06
Time = 0.00259695s

Qdot = 7.90265e+07, T = 829.97, p = 5.06625e+06, H = 6.63349e-11
ExecutionTime = 13.3151 s  ClockTime = 14 s

deltaT = 9.83051e-06
Time = 0.00260678s

Qdot = 7.92994e+07, T = 830.596, p = 5.06625e+06, H = 6.74212e-11
ExecutionTime = 13.4145 s  ClockTime = 14 s

deltaT = 4.91525e-06
Time = 0.00261169s

Qdot = 7.94884e+07, T = 830.91, p = 5.06625e+06, H = 6.7961e-11
ExecutionTime = 13.5121 s  ClockTime = 14 s

deltaT = 2.45763e-06
Time = 0.00261415s

Qdot = 7.95847e+07, T = 831.067, p = 5.06625e+06, H = 6.82288e-11
ExecutionTime = 13.5584 s  ClockTime = 14 s

deltaT = 3.24242e-06
Time = 0.00261739s

Qdot = 7.96508e+07, T = 831.274, p = 5.06625e+06, H = 6.85762e-11
ExecutionTime = 13.6046 s  ClockTime = 14 s

deltaT = 6.48483e-06
Time = 0.00262388s

Qdot = 7.97571e+07, T = 831.689, p = 5.06625e+06, H = 6.92642e-11
ExecutionTime = 13.6635 s  ClockTime = 14 s

deltaT = 9.8979e-06
Time = 0.00263378s

Qdot = 7.99253e+07, T = 832.324, p = 5.06625e+06, H = 7.02827e-11
ExecutionTime = 13.7105 s  ClockTime = 14 s

deltaT = 9.8979e-06
Time = 0.00264368s

Qdot = 8.00921e+07, T = 832.96, p = 5.06625e+06, H = 7.12835e-11
ExecutionTime = 13.809 s  ClockTime = 14 s

deltaT = 4.94895e-06
Time = 0.00264862s

Qdot = 8.02254e+07, T = 833.278, p = 5.06625e+06, H = 7.17815e-11
ExecutionTime = 13.8795 s  ClockTime = 14 s

deltaT = 9.76043e-06
Time = 0.00265838s

Qdot = 8.03188e+07, T = 833.907, p = 5.06625e+06, H = 7.27229e-11
ExecutionTime = 13.9773 s  ClockTime = 14 s

deltaT = 4.88021e-06
Time = 0.00266327s

Qdot = 8.04015e+07, T = 834.221, p = 5.06625e+06, H = 7.31755e-11
ExecutionTime = 14.0516 s  ClockTime = 14 s

deltaT = 9.62099e-06
Time = 0.00267289s

Qdot = 8.04726e+07, T = 834.842, p = 5.06625e+06, H = 7.40653e-11
ExecutionTime = 14.1571 s  ClockTime = 14 s

deltaT = 4.8105e-06
Time = 0.0026777s

Qdot = 8.05241e+07, T = 835.153, p = 5.06625e+06, H = 7.44876e-11
ExecutionTime = 14.2347 s  ClockTime = 14 s

deltaT = 9.47951e-06
Time = 0.00268718s

Qdot = 8.05593e+07, T = 835.765, p = 5.06625e+06, H = 7.5312e-11
ExecutionTime = 14.3368 s  ClockTime = 15 s

deltaT = 4.73975e-06
Time = 0.00269192s

Qdot = 8.05872e+07, T = 836.071, p = 5.06625e+06, H = 7.57116e-11
ExecutionTime = 14.4118 s  ClockTime = 15 s

deltaT = 9.33588e-06
Time = 0.00270125s

Qdot = 8.05893e+07, T = 836.674, p = 5.06625e+06, H = 7.646e-11
ExecutionTime = 14.5213 s  ClockTime = 15 s

deltaT = 4.66794e-06
Time = 0.00270592s

Qdot = 8.05877e+07, T = 836.975, p = 5.06625e+06, H = 7.68401e-11
ExecutionTime = 14.5987 s  ClockTime = 15 s

deltaT = 9.19001e-06
Time = 0.00271511s

Qdot = 8.05587e+07, T = 837.568, p = 5.06625e+06, H = 7.75376e-11
ExecutionTime = 14.7087 s  ClockTime = 15 s

deltaT = 4.595e-06
Time = 0.0027197s

Qdot = 8.05283e+07, T = 837.865, p = 5.06625e+06, H = 7.7876e-11
ExecutionTime = 14.7581 s  ClockTime = 15 s

deltaT = 9.04178e-06
Time = 0.00272875s

Qdot = 8.04713e+07, T = 838.448, p = 5.06625e+06, H = 7.85112e-11
ExecutionTime = 14.8624 s  ClockTime = 15 s

deltaT = 4.52089e-06
Time = 0.00273327s

Qdot = 8.04082e+07, T = 838.739, p = 5.06625e+06, H = 7.88139e-11
ExecutionTime = 14.9105 s  ClockTime = 15 s

deltaT = 8.89109e-06
Time = 0.00274216s

Qdot = 8.03253e+07, T = 839.311, p = 5.06625e+06, H = 7.93911e-11
ExecutionTime = 15.0136 s  ClockTime = 15 s

deltaT = 4.44554e-06
Time = 0.0027466s

Qdot = 8.02352e+07, T = 839.596, p = 5.06625e+06, H = 7.96631e-11
ExecutionTime = 15.0899 s  ClockTime = 15 s

deltaT = 8.73779e-06
Time = 0.00275534s

Qdot = 8.01234e+07, T = 840.157, p = 5.06625e+06, H = 8.01753e-11
ExecutionTime = 15.1998 s  ClockTime = 15 s

deltaT = 4.3689e-06
Time = 0.00275971s

Qdot = 7.99954e+07, T = 840.437, p = 5.06625e+06, H = 8.04114e-11
ExecutionTime = 15.2787 s  ClockTime = 15 s

deltaT = 8.58176e-06
Time = 0.00276829s

Qdot = 7.98669e+07, T = 840.985, p = 5.06625e+06, H = 8.0869e-11
ExecutionTime = 15.3814 s  ClockTime = 16 s

deltaT = 4.29088e-06
Time = 0.00277258s

Qdot = 7.97245e+07, T = 841.259, p = 5.06625e+06, H = 8.10797e-11
ExecutionTime = 15.4302 s  ClockTime = 16 s

deltaT = 8.42284e-06
Time = 0.00278101s

Qdot = 7.95618e+07, T = 841.795, p = 5.06625e+06, H = 8.14728e-11
ExecutionTime = 15.5468 s  ClockTime = 16 s

deltaT = 9.95426e-06
Time = 0.00279096s

Qdot = 7.92903e+07, T = 842.427, p = 5.06625e+06, H = 8.18768e-11
ExecutionTime = 15.5945 s  ClockTime = 16 s

deltaT = 9.95426e-06
Time = 0.00280091s

Qdot = 7.89813e+07, T = 843.056, p = 5.06625e+06, H = 8.22472e-11
ExecutionTime = 15.6968 s  ClockTime = 16 s

deltaT = 4.97713e-06
Time = 0.00280589s

Qdot = 7.87287e+07, T = 843.369, p = 5.06625e+06, H = 8.24049e-11
ExecutionTime = 15.85 s  ClockTime = 16 s

deltaT = 8.43948e-06
Time = 0.00281433s

Qdot = 7.84916e+07, T = 843.899, p = 5.06625e+06, H = 8.26634e-11
ExecutionTime = 16.0307 s  ClockTime = 16 s

deltaT = 9.77203e-06
Time = 0.0028241s

Qdot = 7.81402e+07, T = 844.51, p = 5.06625e+06, H = 8.29119e-11
ExecutionTime = 16.0785 s  ClockTime = 16 s

deltaT = 9.77203e-06
Time = 0.00283388s

Qdot = 7.77129e+07, T = 845.117, p = 5.06625e+06, H = 8.30998e-11
ExecutionTime = 16.1858 s  ClockTime = 16 s

deltaT = 9.77203e-06
Time = 0.00284365s

Qdot = 7.72861e+07, T = 845.721, p = 5.06625e+06, H = 8.32492e-11
ExecutionTime = 16.2322 s  ClockTime = 16 s

deltaT = 9.77203e-06
Time = 0.00285342s

Qdot = 7.68242e+07, T = 846.321, p = 5.06625e+06, H = 8.33174e-11
ExecutionTime = 16.3838 s  ClockTime = 17 s

deltaT = 7.71476e-06
Time = 0.00286113s

Qdot = 7.63934e+07, T = 846.792, p = 5.06625e+06, H = 8.33514e-11
ExecutionTime = 16.5764 s  ClockTime = 17 s

deltaT = 9.91898e-06
Time = 0.00287105s

Qdot = 7.59105e+07, T = 847.394, p = 5.06625e+06, H = 8.33635e-11
ExecutionTime = 16.7601 s  ClockTime = 17 s

deltaT = 9.91898e-06
Time = 0.00288097s

Qdot = 7.53501e+07, T = 847.991, p = 5.06625e+06, H = 8.33261e-11
ExecutionTime = 16.9933 s  ClockTime = 17 s

deltaT = 9.91898e-06
Time = 0.00289089s

Qdot = 7.47682e+07, T = 848.584, p = 5.06625e+06, H = 8.3247e-11
ExecutionTime = 17.076 s  ClockTime = 17 s

deltaT = 4.95949e-06
Time = 0.00289585s

Qdot = 7.43032e+07, T = 848.878, p = 5.06625e+06, H = 8.31669e-11
ExecutionTime = 17.2308 s  ClockTime = 17 s

deltaT = 9.46812e-06
Time = 0.00290532s

Qdot = 7.38377e+07, T = 849.436, p = 5.06625e+06, H = 8.3002e-11
ExecutionTime = 17.3175 s  ClockTime = 18 s

deltaT = 4.73406e-06
Time = 0.00291005s

Qdot = 7.33875e+07, T = 849.714, p = 5.06625e+06, H = 8.29294e-11
ExecutionTime = 17.3759 s  ClockTime = 18 s

deltaT = 4.99706e-06
Time = 0.00291505s

Qdot = 7.30544e+07, T = 850.005, p = 5.06625e+06, H = 8.28178e-11
ExecutionTime = 17.4357 s  ClockTime = 18 s

deltaT = 4.2475e-06
Time = 0.0029193s

Qdot = 7.27505e+07, T = 850.252, p = 5.06625e+06, H = 8.27178e-11
ExecutionTime = 17.4805 s  ClockTime = 18 s

deltaT = 5.76447e-06
Time = 0.00292506s

Qdot = 7.24016e+07, T = 850.585, p = 5.06625e+06, H = 8.25721e-11
ExecutionTime = 17.6189 s  ClockTime = 18 s

deltaT = 9.36726e-06
Time = 0.00293443s

Qdot = 7.18619e+07, T = 851.123, p = 5.06625e+06, H = 8.22898e-11
ExecutionTime = 17.665 s  ClockTime = 18 s

deltaT = 9.36726e-06
Time = 0.0029438s

Qdot = 7.1159e+07, T = 851.655, p = 5.06625e+06, H = 8.19493e-11
ExecutionTime = 17.7476 s  ClockTime = 18 s

deltaT = 4.68363e-06
Time = 0.00294848s

Qdot = 7.06345e+07, T = 851.919, p = 5.06625e+06, H = 8.17747e-11
ExecutionTime = 17.8203 s  ClockTime = 18 s

deltaT = 8.58666e-06
Time = 0.00295707s

Qdot = 7.01138e+07, T = 852.4, p = 5.06625e+06, H = 8.14203e-11
ExecutionTime = 17.9076 s  ClockTime = 18 s

deltaT = 4.29333e-06
Time = 0.00296136s

Qdot = 6.9629e+07, T = 852.638, p = 5.06625e+06, H = 8.12433e-11
ExecutionTime = 17.9529 s  ClockTime = 18 s

deltaT = 7.72799e-06
Time = 0.00296909s

Qdot = 6.91439e+07, T = 853.064, p = 5.06625e+06, H = 8.08786e-11
ExecutionTime = 18.0358 s  ClockTime = 18 s

deltaT = 3.864e-06
Time = 0.00297295s

Qdot = 6.86888e+07, T = 853.276, p = 5.06625e+06, H = 8.06853e-11
ExecutionTime = 18.1093 s  ClockTime = 18 s

deltaT = 6.76199e-06
Time = 0.00297971s

Qdot = 6.8249e+07, T = 853.644, p = 5.06625e+06, H = 8.03496e-11
ExecutionTime = 18.1661 s  ClockTime = 18 s

deltaT = 6.76199e-06
Time = 0.00298648s

Qdot = 6.77025e+07, T = 854.01, p = 5.06625e+06, H = 7.99998e-11
ExecutionTime = 18.2119 s  ClockTime = 18 s

deltaT = 6.76199e-06
Time = 0.00299324s

Qdot = 6.71413e+07, T = 854.372, p = 5.06625e+06, H = 7.96147e-11
ExecutionTime = 18.2712 s  ClockTime = 18 s

deltaT = 6.76199e-06
Time = 0.003s

Qdot = 6.65695e+07, T = 854.731, p = 5.06625e+06, H = 7.92271e-11
ExecutionTime = 18.3434 s  ClockTime = 19 s

deltaT = 1e-05
Time = 0.00301s

Qdot = 6.58546e+07, T = 855.256, p = 5.06625e+06, H = 7.86104e-11
ExecutionTime = 18.4381 s  ClockTime = 19 s

deltaT = 5e-06
Time = 0.003015s

Qdot = 6.52362e+07, T = 855.516, p = 5.06625e+06, H = 7.83141e-11
ExecutionTime = 18.4963 s  ClockTime = 19 s

deltaT = 9.89796e-06
Time = 0.0030249s

Qdot = 6.45839e+07, T = 856.026, p = 5.06625e+06, H = 7.7656e-11
ExecutionTime = 18.6887 s  ClockTime = 19 s

deltaT = 9.89796e-06
Time = 0.0030348s

Qdot = 6.37284e+07, T = 856.529, p = 5.06625e+06, H = 7.69024e-11
ExecutionTime = 18.913 s  ClockTime = 19 s

deltaT = 9.89796e-06
Time = 0.00304469s

Qdot = 6.28283e+07, T = 857.024, p = 5.06625e+06, H = 7.61652e-11
ExecutionTime = 19.0665 s  ClockTime = 19 s

deltaT = 8.59068e-06
Time = 0.00305328s

Qdot = 6.20284e+07, T = 857.449, p = 5.06625e+06, H = 7.55609e-11
ExecutionTime = 19.113 s  ClockTime = 19 s

deltaT = 9.92701e-06
Time = 0.00306321s

Qdot = 6.12121e+07, T = 857.933, p = 5.06625e+06, H = 7.48138e-11
ExecutionTime = 19.212 s  ClockTime = 19 s

deltaT = 4.9635e-06
Time = 0.00306818s

Qdot = 6.05564e+07, T = 858.173, p = 5.06625e+06, H = 7.44266e-11
ExecutionTime = 19.2821 s  ClockTime = 19 s

deltaT = 9.8142e-06
Time = 0.00307799s

Qdot = 5.98941e+07, T = 858.641, p = 5.06625e+06, H = 7.36634e-11
ExecutionTime = 19.3821 s  ClockTime = 20 s

deltaT = 4.9071e-06
Time = 0.0030829s

Qdot = 5.92566e+07, T = 858.873, p = 5.06625e+06, H = 7.327e-11
ExecutionTime = 19.4548 s  ClockTime = 20 s

deltaT = 9.70008e-06
Time = 0.0030926s

Qdot = 5.85884e+07, T = 859.326, p = 5.06625e+06, H = 7.24769e-11
ExecutionTime = 19.5485 s  ClockTime = 20 s

deltaT = 4.85004e-06
Time = 0.00309745s

Qdot = 5.79525e+07, T = 859.55, p = 5.06625e+06, H = 7.20806e-11
ExecutionTime = 19.5951 s  ClockTime = 20 s

deltaT = 9.58461e-06
Time = 0.00310703s

Qdot = 5.73116e+07, T = 859.987, p = 5.06625e+06, H = 7.12872e-11
ExecutionTime = 19.6914 s  ClockTime = 20 s

deltaT = 4.7923e-06
Time = 0.00311182s

Qdot = 5.66787e+07, T = 860.203, p = 5.06625e+06, H = 7.08813e-11
ExecutionTime = 19.7623 s  ClockTime = 20 s

deltaT = 9.46772e-06
Time = 0.00312129s

Qdot = 5.60436e+07, T = 860.626, p = 5.06625e+06, H = 7.0068e-11
ExecutionTime = 19.8592 s  ClockTime = 20 s

deltaT = 4.73386e-06
Time = 0.00312602s

Qdot = 5.54456e+07, T = 860.835, p = 5.06625e+06, H = 6.96874e-11
ExecutionTime = 19.9312 s  ClockTime = 20 s

deltaT = 9.34938e-06
Time = 0.00313537s

Qdot = 5.48166e+07, T = 861.243, p = 5.06625e+06, H = 6.88821e-11
ExecutionTime = 20.0259 s  ClockTime = 20 s

deltaT = 4.67469e-06
Time = 0.00314005s

Qdot = 5.42304e+07, T = 861.445, p = 5.06625e+06, H = 6.84962e-11
ExecutionTime = 20.0712 s  ClockTime = 20 s

deltaT = 9.22951e-06
Time = 0.00314928s

Qdot = 5.36336e+07, T = 861.839, p = 5.06625e+06, H = 6.77048e-11
ExecutionTime = 20.1679 s  ClockTime = 20 s

deltaT = 4.61476e-06
Time = 0.00315389s

Qdot = 5.30513e+07, T = 862.034, p = 5.06625e+06, H = 6.73026e-11
ExecutionTime = 20.2138 s  ClockTime = 20 s

deltaT = 9.10807e-06
Time = 0.003163s

Qdot = 5.24551e+07, T = 862.414, p = 5.06625e+06, H = 6.6513e-11
ExecutionTime = 20.3129 s  ClockTime = 21 s

deltaT = 4.55404e-06
Time = 0.00316756s

Qdot = 5.18942e+07, T = 862.602, p = 5.06625e+06, H = 6.60918e-11
ExecutionTime = 20.4146 s  ClockTime = 21 s

deltaT = 2.27702e-06
Time = 0.00316983s

Qdot = 5.16141e+07, T = 862.696, p = 5.06625e+06, H = 6.58861e-11
ExecutionTime = 20.5111 s  ClockTime = 21 s

deltaT = 1.13851e-06
Time = 0.00317097s

Qdot = 5.14705e+07, T = 862.742, p = 5.06625e+06, H = 6.57918e-11
ExecutionTime = 20.5547 s  ClockTime = 21 s

deltaT = 2.26917e-06
Time = 0.00317324s

Qdot = 5.13291e+07, T = 862.835, p = 5.06625e+06, H = 6.55942e-11
ExecutionTime = 20.6014 s  ClockTime = 21 s

deltaT = 4.53833e-06
Time = 0.00317778s

Qdot = 5.10529e+07, T = 863.019, p = 5.06625e+06, H = 6.522e-11
ExecutionTime = 20.658 s  ClockTime = 21 s

deltaT = 8.9506e-06
Time = 0.00318673s

Qdot = 5.05037e+07, T = 863.379, p = 5.06625e+06, H = 6.44451e-11
ExecutionTime = 20.7168 s  ClockTime = 21 s

deltaT = 9.78972e-06
Time = 0.00319652s

Qdot = 4.97537e+07, T = 863.767, p = 5.06625e+06, H = 6.36232e-11
ExecutionTime = 20.7756 s  ClockTime = 21 s

deltaT = 9.78972e-06
Time = 0.00320631s

Qdot = 4.89829e+07, T = 864.148, p = 5.06625e+06, H = 6.27839e-11
ExecutionTime = 20.8749 s  ClockTime = 21 s

deltaT = 4.89486e-06
Time = 0.0032112s

Qdot = 4.84283e+07, T = 864.337, p = 5.06625e+06, H = 6.23957e-11
ExecutionTime = 20.9208 s  ClockTime = 21 s

deltaT = 9.62656e-06
Time = 0.00322083s

Qdot = 4.78718e+07, T = 864.703, p = 5.06625e+06, H = 6.16034e-11
ExecutionTime = 21.0183 s  ClockTime = 21 s

deltaT = 4.81328e-06
Time = 0.00322564s

Qdot = 4.73412e+07, T = 864.885, p = 5.06625e+06, H = 6.12135e-11
ExecutionTime = 21.0649 s  ClockTime = 21 s

deltaT = 9.46058e-06
Time = 0.0032351s

Qdot = 4.68075e+07, T = 865.237, p = 5.06625e+06, H = 6.0448e-11
ExecutionTime = 21.1239 s  ClockTime = 21 s

deltaT = 9.81097e-06
Time = 0.00324491s

Qdot = 4.61186e+07, T = 865.597, p = 5.06625e+06, H = 5.96711e-11
ExecutionTime = 21.2224 s  ClockTime = 21 s

deltaT = 4.90549e-06
Time = 0.00324982s

Qdot = 4.56019e+07, T = 865.774, p = 5.06625e+06, H = 5.92985e-11
ExecutionTime = 21.3108 s  ClockTime = 22 s

deltaT = 9.6223e-06
Time = 0.00325944s

Qdot = 4.50992e+07, T = 866.119, p = 5.06625e+06, H = 5.85497e-11
ExecutionTime = 21.3566 s  ClockTime = 22 s

deltaT = 9.6223e-06
Time = 0.00326906s

Qdot = 4.44515e+07, T = 866.459, p = 5.06625e+06, H = 5.78307e-11
ExecutionTime = 21.4339 s  ClockTime = 22 s

deltaT = 9.6223e-06
Time = 0.00327869s

Qdot = 4.38237e+07, T = 866.795, p = 5.06625e+06, H = 5.7118e-11
ExecutionTime = 21.4804 s  ClockTime = 22 s

deltaT = 9.6223e-06
Time = 0.00328831s

Qdot = 4.32039e+07, T = 867.125, p = 5.06625e+06, H = 5.64083e-11
ExecutionTime = 21.539 s  ClockTime = 22 s

deltaT = 9.6223e-06
Time = 0.00329793s

Qdot = 4.26127e+07, T = 867.451, p = 5.06625e+06, H = 5.57337e-11
ExecutionTime = 21.7331 s  ClockTime = 22 s

deltaT = 9.6223e-06
Time = 0.00330755s

Qdot = 4.20334e+07, T = 867.772, p = 5.06625e+06, H = 5.50891e-11
ExecutionTime = 21.7927 s  ClockTime = 22 s

deltaT = 9.6223e-06
Time = 0.00331718s

Qdot = 4.14805e+07, T = 868.09, p = 5.06625e+06, H = 5.44541e-11
ExecutionTime = 21.8386 s  ClockTime = 22 s

deltaT = 9.6223e-06
Time = 0.0033268s

Qdot = 4.09379e+07, T = 868.403, p = 5.06625e+06, H = 5.38315e-11
ExecutionTime = 21.9153 s  ClockTime = 22 s

deltaT = 9.6223e-06
Time = 0.00333642s

Qdot = 4.04156e+07, T = 868.712, p = 5.06625e+06, H = 5.32317e-11
ExecutionTime = 21.9638 s  ClockTime = 22 s

deltaT = 9.6223e-06
Time = 0.00334604s

Qdot = 3.99046e+07, T = 869.017, p = 5.06625e+06, H = 5.26452e-11
ExecutionTime = 22.0224 s  ClockTime = 22 s

deltaT = 9.6223e-06
Time = 0.00335567s

Qdot = 3.94156e+07, T = 869.318, p = 5.06625e+06, H = 5.20686e-11
ExecutionTime = 22.0681 s  ClockTime = 22 s

deltaT = 9.6223e-06
Time = 0.00336529s

Qdot = 3.89361e+07, T = 869.616, p = 5.06625e+06, H = 5.15202e-11
ExecutionTime = 22.1261 s  ClockTime = 22 s

deltaT = 9.6223e-06
Time = 0.00337491s

Qdot = 3.84872e+07, T = 869.91, p = 5.06625e+06, H = 5.10117e-11
ExecutionTime = 22.1704 s  ClockTime = 22 s

deltaT = 9.6223e-06
Time = 0.00338453s

Qdot = 3.8054e+07, T = 870.2, p = 5.06625e+06, H = 5.05093e-11
ExecutionTime = 22.3372 s  ClockTime = 23 s

deltaT = 9.6223e-06
Time = 0.00339415s

Qdot = 3.76425e+07, T = 870.488, p = 5.06625e+06, H = 5.0029e-11
ExecutionTime = 22.4629 s  ClockTime = 23 s

deltaT = 9.6223e-06
Time = 0.00340378s

Qdot = 3.72404e+07, T = 870.773, p = 5.06625e+06, H = 4.95676e-11
ExecutionTime = 22.5211 s  ClockTime = 23 s

deltaT = 9.6223e-06
Time = 0.0034134s

Qdot = 3.68639e+07, T = 871.054, p = 5.06625e+06, H = 4.91315e-11
ExecutionTime = 22.5672 s  ClockTime = 23 s

deltaT = 9.6223e-06
Time = 0.00342302s

Qdot = 3.65055e+07, T = 871.333, p = 5.06625e+06, H = 4.87203e-11
ExecutionTime = 22.6264 s  ClockTime = 23 s

deltaT = 9.6223e-06
Time = 0.00343264s

Qdot = 3.616e+07, T = 871.609, p = 5.06625e+06, H = 4.83158e-11
ExecutionTime = 22.6731 s  ClockTime = 23 s

deltaT = 9.6223e-06
Time = 0.00344227s

Qdot = 3.58259e+07, T = 871.883, p = 5.06625e+06, H = 4.7936e-11
ExecutionTime = 22.7324 s  ClockTime = 23 s

deltaT = 9.6223e-06
Time = 0.00345189s

Qdot = 3.55158e+07, T = 872.154, p = 5.06625e+06, H = 4.758e-11
ExecutionTime = 22.7788 s  ClockTime = 23 s

deltaT = 9.6223e-06
Time = 0.00346151s

Qdot = 3.52163e+07, T = 872.423, p = 5.06625e+06, H = 4.72403e-11
ExecutionTime = 22.8398 s  ClockTime = 23 s

deltaT = 9.6223e-06
Time = 0.00347113s

Qdot = 3.4931e+07, T = 872.69, p = 5.06625e+06, H = 4.6906e-11
ExecutionTime = 22.8985 s  ClockTime = 23 s

deltaT = 9.6223e-06
Time = 0.00348076s

Qdot = 3.46656e+07, T = 872.955, p = 5.06625e+06, H = 4.66205e-11
ExecutionTime = 23.0379 s  ClockTime = 23 s

deltaT = 9.6223e-06
Time = 0.00349038s

Qdot = 3.44284e+07, T = 873.217, p = 5.06625e+06, H = 4.63616e-11
ExecutionTime = 23.0831 s  ClockTime = 23 s

deltaT = 9.6223e-06
Time = 0.0035s

Qdot = 3.41924e+07, T = 873.479, p = 5.06625e+06, H = 4.61065e-11
ExecutionTime = 23.1702 s  ClockTime = 23 s

deltaT = 1e-05
Time = 0.00351s

Qdot = 3.39604e+07, T = 873.748, p = 5.06625e+06, H = 4.58459e-11
ExecutionTime = 23.2149 s  ClockTime = 23 s

deltaT = 1e-05
Time = 0.00352s

Qdot = 3.37478e+07, T = 874.016, p = 5.06625e+06, H = 4.56189e-11
ExecutionTime = 23.4065 s  ClockTime = 24 s

deltaT = 1e-05
Time = 0.00353s

Qdot = 3.3557e+07, T = 874.282, p = 5.06625e+06, H = 4.54184e-11
ExecutionTime = 23.453 s  ClockTime = 24 s

deltaT = 1e-05
Time = 0.00354s

Qdot = 3.33683e+07, T = 874.547, p = 5.06625e+06, H = 4.52206e-11
ExecutionTime = 23.529 s  ClockTime = 24 s

deltaT = 1e-05
Time = 0.00355s

Qdot = 3.31928e+07, T = 874.81, p = 5.06625e+06, H = 4.50484e-11
ExecutionTime = 23.5733 s  ClockTime = 24 s

deltaT = 1e-05
Time = 0.00356s

Qdot = 3.30294e+07, T = 875.072, p = 5.06625e+06, H = 4.4886e-11
ExecutionTime = 23.6312 s  ClockTime = 24 s

deltaT = 1e-05
Time = 0.00357s

Qdot = 3.28959e+07, T = 875.333, p = 5.06625e+06, H = 4.47623e-11
ExecutionTime = 23.6922 s  ClockTime = 24 s

deltaT = 1e-05
Time = 0.00358s

Qdot = 3.27602e+07, T = 875.592, p = 5.06625e+06, H = 4.4638e-11
ExecutionTime = 23.7396 s  ClockTime = 24 s

deltaT = 1e-05
Time = 0.00359s

Qdot = 3.26464e+07, T = 875.851, p = 5.06625e+06, H = 4.45334e-11
ExecutionTime = 23.7852 s  ClockTime = 24 s

deltaT = 1e-05
Time = 0.0036s

Qdot = 3.25367e+07, T = 876.109, p = 5.06625e+06, H = 4.44555e-11
ExecutionTime = 23.8331 s  ClockTime = 24 s

deltaT = 1e-05
Time = 0.00361s

Qdot = 3.24421e+07, T = 876.366, p = 5.06625e+06, H = 4.43896e-11
ExecutionTime = 23.8786 s  ClockTime = 24 s

deltaT = 1e-05
Time = 0.00362s

Qdot = 3.23529e+07, T = 876.623, p = 5.06625e+06, H = 4.43322e-11
ExecutionTime = 23.9246 s  ClockTime = 24 s

deltaT = 1e-05
Time = 0.00363s

Qdot = 3.22869e+07, T = 876.879, p = 5.06625e+06, H = 4.43056e-11
ExecutionTime = 23.9697 s  ClockTime = 24 s

deltaT = 1e-05
Time = 0.00364s

Qdot = 3.22292e+07, T = 877.134, p = 5.06625e+06, H = 4.42905e-11
ExecutionTime = 24.0154 s  ClockTime = 24 s

deltaT = 1e-05
Time = 0.00365s

Qdot = 3.21818e+07, T = 877.389, p = 5.06625e+06, H = 4.42873e-11
ExecutionTime = 24.0608 s  ClockTime = 24 s

deltaT = 1e-05
Time = 0.00366s

Qdot = 3.2137e+07, T = 877.644, p = 5.06625e+06, H = 4.42935e-11
ExecutionTime = 24.1069 s  ClockTime = 24 s

deltaT = 1e-05
Time = 0.00367s

Qdot = 3.21132e+07, T = 877.899, p = 5.06625e+06, H = 4.43284e-11
ExecutionTime = 24.1517 s  ClockTime = 24 s

deltaT = 1e-05
Time = 0.00368s

Qdot = 3.20976e+07, T = 878.153, p = 5.06625e+06, H = 4.43694e-11
ExecutionTime = 24.1974 s  ClockTime = 24 s

deltaT = 1e-05
Time = 0.00369s

Qdot = 3.2096e+07, T = 878.407, p = 5.06625e+06, H = 4.4434e-11
ExecutionTime = 24.387 s  ClockTime = 25 s

deltaT = 1e-05
Time = 0.0037s

Qdot = 3.20933e+07, T = 878.662, p = 5.06625e+06, H = 4.44991e-11
ExecutionTime = 24.4373 s  ClockTime = 25 s

deltaT = 1e-05
Time = 0.00371s

Qdot = 3.2106e+07, T = 878.916, p = 5.06625e+06, H = 4.45879e-11
ExecutionTime = 24.4842 s  ClockTime = 25 s

deltaT = 1e-05
Time = 0.00372s

Qdot = 3.21412e+07, T = 879.171, p = 5.06625e+06, H = 4.46845e-11
ExecutionTime = 24.5326 s  ClockTime = 25 s

deltaT = 1e-05
Time = 0.00373s

Qdot = 3.21747e+07, T = 879.426, p = 5.06625e+06, H = 4.48202e-11
ExecutionTime = 24.729 s  ClockTime = 25 s

deltaT = 1e-05
Time = 0.00374s

Qdot = 3.22059e+07, T = 879.681, p = 5.06625e+06, H = 4.49392e-11
ExecutionTime = 24.7757 s  ClockTime = 25 s

deltaT = 1e-05
Time = 0.00375s

Qdot = 3.22573e+07, T = 879.936, p = 5.06625e+06, H = 4.5088e-11
ExecutionTime = 24.8231 s  ClockTime = 25 s

deltaT = 1e-05
Time = 0.00376s

Qdot = 3.23088e+07, T = 880.192, p = 5.06625e+06, H = 4.52352e-11
ExecutionTime = 24.8702 s  ClockTime = 25 s

deltaT = 1e-05
Time = 0.00377s

Qdot = 3.23768e+07, T = 880.448, p = 5.06625e+06, H = 4.54091e-11
ExecutionTime = 24.9159 s  ClockTime = 25 s

deltaT = 1e-05
Time = 0.00378s

Qdot = 3.2444e+07, T = 880.705, p = 5.06625e+06, H = 4.55811e-11
ExecutionTime = 24.9639 s  ClockTime = 25 s

deltaT = 1e-05
Time = 0.00379s

Qdot = 3.25273e+07, T = 880.963, p = 5.06625e+06, H = 4.57796e-11
ExecutionTime = 25.0218 s  ClockTime = 25 s

deltaT = 1e-05
Time = 0.0038s

Qdot = 3.26095e+07, T = 881.221, p = 5.06625e+06, H = 4.59755e-11
ExecutionTime = 25.068 s  ClockTime = 25 s

deltaT = 1e-05
Time = 0.00381s

Qdot = 3.27076e+07, T = 881.48, p = 5.06625e+06, H = 4.61979e-11
ExecutionTime = 25.1139 s  ClockTime = 25 s

deltaT = 1e-05
Time = 0.00382s

Qdot = 3.28043e+07, T = 881.74, p = 5.06625e+06, H = 4.64142e-11
ExecutionTime = 25.16 s  ClockTime = 25 s

deltaT = 1e-05
Time = 0.00383s

Qdot = 3.29148e+07, T = 882.001, p = 5.06625e+06, H = 4.66602e-11
ExecutionTime = 25.206 s  ClockTime = 25 s

deltaT = 1e-05
Time = 0.00384s

Qdot = 3.30253e+07, T = 882.262, p = 5.06625e+06, H = 4.68991e-11
ExecutionTime = 25.253 s  ClockTime = 25 s

deltaT = 1e-05
Time = 0.00385s

Qdot = 3.31492e+07, T = 882.524, p = 5.06625e+06, H = 4.71677e-11
ExecutionTime = 25.2985 s  ClockTime = 26 s

deltaT = 1e-05
Time = 0.00386s

Qdot = 3.32726e+07, T = 882.788, p = 5.06625e+06, H = 4.74163e-11
ExecutionTime = 25.3455 s  ClockTime = 26 s

deltaT = 1e-05
Time = 0.00387s

Qdot = 3.34099e+07, T = 883.052, p = 5.06625e+06, H = 4.77202e-11
ExecutionTime = 25.4051 s  ClockTime = 26 s

deltaT = 1e-05
Time = 0.00388s

Qdot = 3.35463e+07, T = 883.318, p = 5.06625e+06, H = 4.8003e-11
ExecutionTime = 25.4517 s  ClockTime = 26 s

deltaT = 1e-05
Time = 0.00389s

Qdot = 3.37009e+07, T = 883.585, p = 5.06625e+06, H = 4.83206e-11
ExecutionTime = 25.4984 s  ClockTime = 26 s

deltaT = 1e-05
Time = 0.0039s

Qdot = 3.38416e+07, T = 883.852, p = 5.06625e+06, H = 4.86169e-11
ExecutionTime = 25.5447 s  ClockTime = 26 s

deltaT = 1e-05
Time = 0.00391s

Qdot = 3.40062e+07, T = 884.121, p = 5.06625e+06, H = 4.89517e-11
ExecutionTime = 25.5909 s  ClockTime = 26 s

deltaT = 1e-05
Time = 0.00392s

Qdot = 3.41602e+07, T = 884.392, p = 5.06625e+06, H = 4.92724e-11
ExecutionTime = 25.6375 s  ClockTime = 26 s

deltaT = 1e-05
Time = 0.00393s

Qdot = 3.43418e+07, T = 884.663, p = 5.06625e+06, H = 4.96314e-11
ExecutionTime = 25.6862 s  ClockTime = 26 s

deltaT = 1e-05
Time = 0.00394s

Qdot = 3.45049e+07, T = 884.936, p = 5.06625e+06, H = 4.99718e-11
ExecutionTime = 25.7331 s  ClockTime = 26 s

deltaT = 1e-05
Time = 0.00395s

Qdot = 3.46886e+07, T = 885.211, p = 5.06625e+06, H = 5.03442e-11
ExecutionTime = 25.7785 s  ClockTime = 26 s

deltaT = 1e-05
Time = 0.00396s

Qdot = 3.48804e+07, T = 885.487, p = 5.06625e+06, H = 5.07182e-11
ExecutionTime = 25.8299 s  ClockTime = 26 s

deltaT = 1e-05
Time = 0.00397s

Qdot = 3.50674e+07, T = 885.764, p = 5.06625e+06, H = 5.11054e-11
ExecutionTime = 25.8758 s  ClockTime = 26 s

deltaT = 1e-05
Time = 0.00398s

Qdot = 3.5269e+07, T = 886.043, p = 5.06625e+06, H = 5.15e-11
ExecutionTime = 25.9237 s  ClockTime = 26 s

deltaT = 1e-05
Time = 0.00399s

Qdot = 3.54697e+07, T = 886.324, p = 5.06625e+06, H = 5.19102e-11
ExecutionTime = 25.9701 s  ClockTime = 26 s

deltaT = 1e-05
Time = 0.004s

Qdot = 3.56817e+07, T = 886.606, p = 5.06625e+06, H = 5.23259e-11
ExecutionTime = 26.0452 s  ClockTime = 26 s

deltaT = 1e-05
Time = 0.00401s

Qdot = 3.58927e+07, T = 886.89, p = 5.06625e+06, H = 5.27434e-11
ExecutionTime = 26.0924 s  ClockTime = 26 s

deltaT = 1e-05
Time = 0.00402s

Qdot = 3.61165e+07, T = 887.175, p = 5.06625e+06, H = 5.31952e-11
ExecutionTime = 26.1966 s  ClockTime = 26 s

deltaT = 5e-06
Time = 0.004025s

Qdot = 3.62868e+07, T = 887.319, p = 5.06625e+06, H = 5.34209e-11
ExecutionTime = 26.322 s  ClockTime = 27 s

deltaT = 5.79268e-06
Time = 0.00403079s

Qdot = 3.64079e+07, T = 887.486, p = 5.06625e+06, H = 5.36814e-11
ExecutionTime = 26.3695 s  ClockTime = 27 s

deltaT = 9.98313e-06
Time = 0.00404078s

Qdot = 3.65862e+07, T = 887.775, p = 5.06625e+06, H = 5.41456e-11
ExecutionTime = 26.4201 s  ClockTime = 27 s

deltaT = 9.98313e-06
Time = 0.00405076s

Qdot = 3.68271e+07, T = 888.065, p = 5.06625e+06, H = 5.46162e-11
ExecutionTime = 26.4704 s  ClockTime = 27 s

deltaT = 9.98313e-06
Time = 0.00406074s

Qdot = 3.70659e+07, T = 888.358, p = 5.06625e+06, H = 5.51035e-11
ExecutionTime = 26.5194 s  ClockTime = 27 s

deltaT = 9.98313e-06
Time = 0.00407073s

Qdot = 3.73178e+07, T = 888.652, p = 5.06625e+06, H = 5.55966e-11
ExecutionTime = 26.5838 s  ClockTime = 27 s

deltaT = 9.98313e-06
Time = 0.00408071s

Qdot = 3.75672e+07, T = 888.949, p = 5.06625e+06, H = 5.60913e-11
ExecutionTime = 26.6318 s  ClockTime = 27 s

deltaT = 9.98313e-06
Time = 0.00409069s

Qdot = 3.78331e+07, T = 889.247, p = 5.06625e+06, H = 5.66037e-11
ExecutionTime = 26.6988 s  ClockTime = 27 s

deltaT = 9.98313e-06
Time = 0.00410067s

Qdot = 3.80892e+07, T = 889.548, p = 5.06625e+06, H = 5.71302e-11
ExecutionTime = 26.8897 s  ClockTime = 27 s

deltaT = 9.98313e-06
Time = 0.00411066s

Qdot = 3.83684e+07, T = 889.851, p = 5.06625e+06, H = 5.76731e-11
ExecutionTime = 26.953 s  ClockTime = 27 s

deltaT = 9.98313e-06
Time = 0.00412064s

Qdot = 3.86346e+07, T = 890.155, p = 5.06625e+06, H = 5.82229e-11
ExecutionTime = 27.0006 s  ClockTime = 27 s

deltaT = 9.98313e-06
Time = 0.00413062s

Qdot = 3.89257e+07, T = 890.463, p = 5.06625e+06, H = 5.87905e-11
ExecutionTime = 27.0665 s  ClockTime = 27 s

deltaT = 9.98313e-06
Time = 0.00414061s

Qdot = 3.92032e+07, T = 890.772, p = 5.06625e+06, H = 5.93647e-11
ExecutionTime = 27.117 s  ClockTime = 27 s

deltaT = 9.98313e-06
Time = 0.00415059s

Qdot = 3.95064e+07, T = 891.083, p = 5.06625e+06, H = 5.99575e-11
ExecutionTime = 27.1825 s  ClockTime = 27 s

deltaT = 9.98313e-06
Time = 0.00416057s

Qdot = 3.97955e+07, T = 891.397, p = 5.06625e+06, H = 6.0557e-11
ExecutionTime = 27.2305 s  ClockTime = 27 s

deltaT = 9.98313e-06
Time = 0.00417056s

Qdot = 4.0111e+07, T = 891.714, p = 5.06625e+06, H = 6.11758e-11
ExecutionTime = 27.2926 s  ClockTime = 28 s

deltaT = 9.98313e-06
Time = 0.00418054s

Qdot = 4.04135e+07, T = 892.032, p = 5.06625e+06, H = 6.17968e-11
ExecutionTime = 27.3397 s  ClockTime = 28 s

deltaT = 9.98313e-06
Time = 0.00419052s

Qdot = 4.07363e+07, T = 892.354, p = 5.06625e+06, H = 6.24336e-11
ExecutionTime = 27.4068 s  ClockTime = 28 s

deltaT = 9.98313e-06
Time = 0.00420051s

Qdot = 4.10541e+07, T = 892.677, p = 5.06625e+06, H = 6.30904e-11
ExecutionTime = 27.4551 s  ClockTime = 28 s

deltaT = 9.98313e-06
Time = 0.00421049s

Qdot = 4.13909e+07, T = 893.004, p = 5.06625e+06, H = 6.37662e-11
ExecutionTime = 27.5182 s  ClockTime = 28 s

deltaT = 9.98313e-06
Time = 0.00422047s

Qdot = 4.17197e+07, T = 893.333, p = 5.06625e+06, H = 6.44421e-11
ExecutionTime = 27.5707 s  ClockTime = 28 s

deltaT = 9.98313e-06
Time = 0.00423046s

Qdot = 4.20676e+07, T = 893.664, p = 5.06625e+06, H = 6.51358e-11
ExecutionTime = 27.6373 s  ClockTime = 28 s

deltaT = 9.98313e-06
Time = 0.00424044s

Qdot = 4.24111e+07, T = 893.999, p = 5.06625e+06, H = 6.58514e-11
ExecutionTime = 27.686 s  ClockTime = 28 s

deltaT = 9.98313e-06
Time = 0.00425042s

Qdot = 4.27729e+07, T = 894.336, p = 5.06625e+06, H = 6.65755e-11
ExecutionTime = 27.753 s  ClockTime = 28 s

deltaT = 9.98313e-06
Time = 0.0042604s

Qdot = 4.31301e+07, T = 894.676, p = 5.06625e+06, H = 6.73226e-11
ExecutionTime = 27.8125 s  ClockTime = 28 s

deltaT = 9.98313e-06
Time = 0.00427039s

Qdot = 4.35076e+07, T = 895.019, p = 5.06625e+06, H = 6.80772e-11
ExecutionTime = 27.8805 s  ClockTime = 28 s

deltaT = 9.98313e-06
Time = 0.00428037s

Qdot = 4.38941e+07, T = 895.365, p = 5.06625e+06, H = 6.88752e-11
ExecutionTime = 27.9314 s  ClockTime = 28 s

deltaT = 9.98313e-06
Time = 0.00429035s

Qdot = 4.42881e+07, T = 895.714, p = 5.06625e+06, H = 6.96652e-11
ExecutionTime = 28.0129 s  ClockTime = 28 s

deltaT = 9.98313e-06
Time = 0.00430034s

Qdot = 4.46758e+07, T = 896.066, p = 5.06625e+06, H = 7.04804e-11
ExecutionTime = 28.0737 s  ClockTime = 28 s

deltaT = 9.98313e-06
Time = 0.00431032s

Qdot = 4.50839e+07, T = 896.421, p = 5.06625e+06, H = 7.13057e-11
ExecutionTime = 28.1515 s  ClockTime = 28 s

deltaT = 9.98313e-06
Time = 0.0043203s

Qdot = 4.54948e+07, T = 896.779, p = 5.06625e+06, H = 7.21646e-11
ExecutionTime = 28.204 s  ClockTime = 28 s

deltaT = 9.98313e-06
Time = 0.00433029s

Qdot = 4.59108e+07, T = 897.141, p = 5.06625e+06, H = 7.30205e-11
ExecutionTime = 28.2741 s  ClockTime = 28 s

deltaT = 9.98313e-06
Time = 0.00434027s

Qdot = 4.63402e+07, T = 897.506, p = 5.06625e+06, H = 7.39203e-11
ExecutionTime = 28.3273 s  ClockTime = 29 s

deltaT = 9.98313e-06
Time = 0.00435025s

Qdot = 4.67738e+07, T = 897.875, p = 5.06625e+06, H = 7.48156e-11
ExecutionTime = 28.5538 s  ClockTime = 29 s

deltaT = 9.98313e-06
Time = 0.00436024s

Qdot = 4.72208e+07, T = 898.247, p = 5.06625e+06, H = 7.5756e-11
ExecutionTime = 28.6223 s  ClockTime = 29 s

deltaT = 9.98313e-06
Time = 0.00437022s

Qdot = 4.76663e+07, T = 898.622, p = 5.06625e+06, H = 7.66876e-11
ExecutionTime = 28.6956 s  ClockTime = 29 s

deltaT = 9.98313e-06
Time = 0.0043802s

Qdot = 4.81308e+07, T = 899.001, p = 5.06625e+06, H = 7.76702e-11
ExecutionTime = 28.7555 s  ClockTime = 29 s

deltaT = 9.98313e-06
Time = 0.00439019s

Qdot = 4.86014e+07, T = 899.384, p = 5.06625e+06, H = 7.86506e-11
ExecutionTime = 28.8285 s  ClockTime = 29 s

deltaT = 9.98313e-06
Time = 0.00440017s

Qdot = 4.90881e+07, T = 899.77, p = 5.06625e+06, H = 7.96822e-11
ExecutionTime = 28.8811 s  ClockTime = 29 s

deltaT = 9.98313e-06
Time = 0.00441015s

Qdot = 4.95721e+07, T = 900.161, p = 5.06625e+06, H = 8.07035e-11
ExecutionTime = 28.9496 s  ClockTime = 29 s

deltaT = 9.98313e-06
Time = 0.00442013s

Qdot = 5.00762e+07, T = 900.555, p = 5.06625e+06, H = 8.17813e-11
ExecutionTime = 29.0022 s  ClockTime = 29 s

deltaT = 9.98313e-06
Time = 0.00443012s

Qdot = 5.05879e+07, T = 900.953, p = 5.06625e+06, H = 8.28569e-11
ExecutionTime = 29.1034 s  ClockTime = 29 s

deltaT = 4.99157e-06
Time = 0.00443511s

Qdot = 5.09875e+07, T = 901.154, p = 5.06625e+06, H = 8.343e-11
ExecutionTime = 29.1565 s  ClockTime = 29 s

deltaT = 9.27005e-06
Time = 0.00444438s

Qdot = 5.13557e+07, T = 901.529, p = 5.06625e+06, H = 8.44556e-11
ExecutionTime = 29.2233 s  ClockTime = 29 s

deltaT = 9.27005e-06
Time = 0.00445365s

Qdot = 5.18634e+07, T = 901.908, p = 5.06625e+06, H = 8.55469e-11
ExecutionTime = 29.2766 s  ClockTime = 29 s

deltaT = 9.27005e-06
Time = 0.00446292s

Qdot = 5.23673e+07, T = 902.291, p = 5.06625e+06, H = 8.6621e-11
ExecutionTime = 29.3439 s  ClockTime = 30 s

deltaT = 9.27005e-06
Time = 0.00447219s

Qdot = 5.28908e+07, T = 902.677, p = 5.06625e+06, H = 8.77584e-11
ExecutionTime = 29.4015 s  ClockTime = 30 s

deltaT = 9.27005e-06
Time = 0.00448146s

Qdot = 5.34238e+07, T = 903.068, p = 5.06625e+06, H = 8.88894e-11
ExecutionTime = 29.5003 s  ClockTime = 30 s

deltaT = 4.63503e-06
Time = 0.00448609s

Qdot = 5.38388e+07, T = 903.264, p = 5.06625e+06, H = 8.94933e-11
ExecutionTime = 29.5865 s  ClockTime = 30 s

deltaT = 6.95254e-06
Time = 0.00449305s

Qdot = 5.41726e+07, T = 903.561, p = 5.06625e+06, H = 9.03585e-11
ExecutionTime = 29.6524 s  ClockTime = 30 s

deltaT = 6.95254e-06
Time = 0.0045s

Qdot = 5.45978e+07, T = 903.86, p = 5.06625e+06, H = 9.12827e-11
ExecutionTime = 29.7427 s  ClockTime = 30 s

deltaT = 1e-05
Time = 0.00451s

Qdot = 5.51086e+07, T = 904.294, p = 5.06625e+06, H = 9.2587e-11
ExecutionTime = 29.8729 s  ClockTime = 30 s

deltaT = 1e-05
Time = 0.00452s

Qdot = 5.57354e+07, T = 904.734, p = 5.06625e+06, H = 9.3965e-11
ExecutionTime = 29.9248 s  ClockTime = 30 s

deltaT = 1e-05
Time = 0.00453s

Qdot = 5.63748e+07, T = 905.178, p = 5.06625e+06, H = 9.53449e-11
ExecutionTime = 30.059 s  ClockTime = 30 s

deltaT = 1e-05
Time = 0.00454s

Qdot = 5.70356e+07, T = 905.627, p = 5.06625e+06, H = 9.68002e-11
ExecutionTime = 30.1114 s  ClockTime = 30 s

deltaT = 1e-05
Time = 0.00455s

Qdot = 5.7697e+07, T = 906.082, p = 5.06625e+06, H = 9.82477e-11
ExecutionTime = 30.2453 s  ClockTime = 30 s

deltaT = 1e-05
Time = 0.00456s

Qdot = 5.83912e+07, T = 906.541, p = 5.06625e+06, H = 9.97832e-11
ExecutionTime = 30.2981 s  ClockTime = 31 s

deltaT = 1e-05
Time = 0.00457s

Qdot = 5.90859e+07, T = 907.007, p = 5.06625e+06, H = 1.01311e-10
ExecutionTime = 30.4297 s  ClockTime = 31 s

deltaT = 1e-05
Time = 0.00458s

Qdot = 5.98138e+07, T = 907.478, p = 5.06625e+06, H = 1.02931e-10
ExecutionTime = 30.4859 s  ClockTime = 31 s

deltaT = 1e-05
Time = 0.00459s

Qdot = 6.05463e+07, T = 907.955, p = 5.06625e+06, H = 1.04548e-10
ExecutionTime = 30.63 s  ClockTime = 31 s

deltaT = 1e-05
Time = 0.0046s

Qdot = 6.13076e+07, T = 908.437, p = 5.06625e+06, H = 1.06258e-10
ExecutionTime = 30.6832 s  ClockTime = 31 s

deltaT = 1e-05
Time = 0.00461s

Qdot = 6.20745e+07, T = 908.926, p = 5.06625e+06, H = 1.07964e-10
ExecutionTime = 30.8149 s  ClockTime = 31 s

deltaT = 1e-05
Time = 0.00462s

Qdot = 6.28783e+07, T = 909.421, p = 5.06625e+06, H = 1.09776e-10
ExecutionTime = 30.8778 s  ClockTime = 31 s

deltaT = 1e-05
Time = 0.00463s

Qdot = 6.36855e+07, T = 909.922, p = 5.06625e+06, H = 1.11582e-10
ExecutionTime = 31.0097 s  ClockTime = 31 s

deltaT = 1e-05
Time = 0.00464s

Qdot = 6.45313e+07, T = 910.43, p = 5.06625e+06, H = 1.13502e-10
ExecutionTime = 31.0633 s  ClockTime = 31 s

deltaT = 1e-05
Time = 0.00465s

Qdot = 6.53819e+07, T = 910.944, p = 5.06625e+06, H = 1.15418e-10
ExecutionTime = 31.1888 s  ClockTime = 31 s

deltaT = 1e-05
Time = 0.00466s

Qdot = 6.62731e+07, T = 911.466, p = 5.06625e+06, H = 1.17454e-10
ExecutionTime = 31.2408 s  ClockTime = 31 s

deltaT = 1e-05
Time = 0.00467s

Qdot = 6.71706e+07, T = 911.994, p = 5.06625e+06, H = 1.19488e-10
ExecutionTime = 31.362 s  ClockTime = 32 s

deltaT = 1e-05
Time = 0.00468s

Qdot = 6.81111e+07, T = 912.53, p = 5.06625e+06, H = 1.21652e-10
ExecutionTime = 31.4151 s  ClockTime = 32 s

deltaT = 1e-05
Time = 0.00469s

Qdot = 6.90594e+07, T = 913.073, p = 5.06625e+06, H = 1.23815e-10
ExecutionTime = 31.5406 s  ClockTime = 32 s

deltaT = 1e-05
Time = 0.0047s

Qdot = 7.00537e+07, T = 913.624, p = 5.06625e+06, H = 1.26117e-10
ExecutionTime = 31.5935 s  ClockTime = 32 s

deltaT = 1e-05
Time = 0.00471s

Qdot = 7.10568e+07, T = 914.183, p = 5.06625e+06, H = 1.28422e-10
ExecutionTime = 31.7195 s  ClockTime = 32 s

deltaT = 1e-05
Time = 0.00472s

Qdot = 7.21128e+07, T = 914.75, p = 5.06625e+06, H = 1.30881e-10
ExecutionTime = 31.7723 s  ClockTime = 32 s

deltaT = 1e-05
Time = 0.00473s

Qdot = 7.31694e+07, T = 915.326, p = 5.06625e+06, H = 1.33294e-10
ExecutionTime = 31.9333 s  ClockTime = 32 s

deltaT = 1e-05
Time = 0.00474s

Qdot = 7.42824e+07, T = 915.909, p = 5.06625e+06, H = 1.35894e-10
ExecutionTime = 32.3492 s  ClockTime = 33 s

deltaT = 1e-05
Time = 0.00475s

Qdot = 7.54054e+07, T = 916.502, p = 5.06625e+06, H = 1.38565e-10
ExecutionTime = 32.4035 s  ClockTime = 33 s

deltaT = 1e-05
Time = 0.00476s

Qdot = 7.65791e+07, T = 917.104, p = 5.06625e+06, H = 1.41319e-10
ExecutionTime = 32.4728 s  ClockTime = 33 s

deltaT = 1e-05
Time = 0.00477s

Qdot = 7.77878e+07, T = 917.715, p = 5.06625e+06, H = 1.44125e-10
ExecutionTime = 32.576 s  ClockTime = 33 s

deltaT = 5e-06
Time = 0.004775s

Qdot = 7.87208e+07, T = 918.025, p = 5.06625e+06, H = 1.45633e-10
ExecutionTime = 32.6329 s  ClockTime = 33 s

deltaT = 6.25e-06
Time = 0.00478125s

Qdot = 7.94287e+07, T = 918.415, p = 5.06625e+06, H = 1.47444e-10
ExecutionTime = 32.687 s  ClockTime = 33 s

deltaT = 9.94318e-06
Time = 0.00479119s

Qdot = 8.04817e+07, T = 919.043, p = 5.06625e+06, H = 1.5056e-10
ExecutionTime = 32.8389 s  ClockTime = 33 s

deltaT = 9.94318e-06
Time = 0.00480114s

Qdot = 8.18037e+07, T = 919.682, p = 5.06625e+06, H = 1.53674e-10
ExecutionTime = 32.8951 s  ClockTime = 33 s

deltaT = 9.94318e-06
Time = 0.00481108s

Qdot = 8.31795e+07, T = 920.332, p = 5.06625e+06, H = 1.57018e-10
ExecutionTime = 32.9716 s  ClockTime = 33 s

deltaT = 9.94318e-06
Time = 0.00482102s

Qdot = 8.45931e+07, T = 920.993, p = 5.06625e+06, H = 1.60372e-10
ExecutionTime = 33.0773 s  ClockTime = 33 s

deltaT = 4.97159e-06
Time = 0.00482599s

Qdot = 8.56914e+07, T = 921.327, p = 5.06625e+06, H = 1.62177e-10
ExecutionTime = 33.1303 s  ClockTime = 33 s

deltaT = 6.21449e-06
Time = 0.00483221s

Qdot = 8.6512e+07, T = 921.749, p = 5.06625e+06, H = 1.64335e-10
ExecutionTime = 33.1847 s  ClockTime = 33 s

deltaT = 9.87007e-06
Time = 0.00484208s

Qdot = 8.77457e+07, T = 922.429, p = 5.06625e+06, H = 1.68059e-10
ExecutionTime = 33.2552 s  ClockTime = 33 s

deltaT = 9.87007e-06
Time = 0.00485195s

Qdot = 8.93204e+07, T = 923.121, p = 5.06625e+06, H = 1.71828e-10
ExecutionTime = 33.3649 s  ClockTime = 34 s

deltaT = 4.93504e-06
Time = 0.00485688s

Qdot = 9.05218e+07, T = 923.472, p = 5.06625e+06, H = 1.7383e-10
ExecutionTime = 33.466 s  ClockTime = 34 s

deltaT = 5.96317e-06
Time = 0.00486285s

Qdot = 9.14236e+07, T = 923.9, p = 5.06625e+06, H = 1.76186e-10
ExecutionTime = 33.5194 s  ClockTime = 34 s

deltaT = 9.79663e-06
Time = 0.00487264s

Qdot = 9.27939e+07, T = 924.613, p = 5.06625e+06, H = 1.80387e-10
ExecutionTime = 33.5876 s  ClockTime = 34 s

deltaT = 9.79663e-06
Time = 0.00488244s

Qdot = 9.44964e+07, T = 925.34, p = 5.06625e+06, H = 1.84555e-10
ExecutionTime = 33.693 s  ClockTime = 34 s

deltaT = 4.89832e-06
Time = 0.00488734s

Qdot = 9.58474e+07, T = 925.708, p = 5.06625e+06, H = 1.86833e-10
ExecutionTime = 33.7801 s  ClockTime = 34 s

deltaT = 5.63306e-06
Time = 0.00489297s

Qdot = 9.6832e+07, T = 926.136, p = 5.06625e+06, H = 1.89364e-10
ExecutionTime = 33.8336 s  ClockTime = 34 s

deltaT = 9.72984e-06
Time = 0.0049027s

Qdot = 9.83014e+07, T = 926.886, p = 5.06625e+06, H = 1.94055e-10
ExecutionTime = 33.9039 s  ClockTime = 34 s

deltaT = 9.72984e-06
Time = 0.00491243s

Qdot = 1.00214e+08, T = 927.651, p = 5.06625e+06, H = 1.98783e-10
ExecutionTime = 34.0055 s  ClockTime = 34 s

deltaT = 4.86492e-06
[...]

deltaT = 1e-05
Time = 0.00857s

Qdot = 25.1278, T = 2660.04, p = 5.06625e+06, H = 1.27791e-05
ExecutionTime = 61.6737 s  ClockTime = 62 s

deltaT = 1e-05
Time = 0.00858s

Qdot = 24.9047, T = 2660.04, p = 5.06625e+06, H = 1.27791e-05
ExecutionTime = 61.7013 s  ClockTime = 62 s

deltaT = 1e-05
Time = 0.00859s

Qdot = 24.6579, T = 2660.04, p = 5.06625e+06, H = 1.27791e-05
ExecutionTime = 61.7293 s  ClockTime = 62 s

deltaT = 1e-05
Time = 0.0086s

Qdot = 24.4487, T = 2660.04, p = 5.06625e+06, H = 1.27791e-05
ExecutionTime = 61.7571 s  ClockTime = 62 s

deltaT = 1e-05
Time = 0.00861s

Qdot = 24.2161, T = 2660.04, p = 5.06625e+06, H = 1.27791e-05
ExecutionTime = 61.7847 s  ClockTime = 62 s

deltaT = 1e-05
Time = 0.00862s

Qdot = 24.0199, T = 2660.04, p = 5.06625e+06, H = 1.27791e-05
ExecutionTime = 61.8123 s  ClockTime = 62 s

deltaT = 1e-05
Time = 0.00863s

Qdot = 23.8001, T = 2660.04, p = 5.06625e+06, H = 1.27791e-05
ExecutionTime = 61.8407 s  ClockTime = 62 s

deltaT = 1e-05
Time = 0.00864s

Qdot = 23.6166, T = 2660.04, p = 5.06625e+06, H = 1.27791e-05
ExecutionTime = 61.8689 s  ClockTime = 62 s

deltaT = 1e-05
Time = 0.00865s

Qdot = 23.4088, T = 2660.04, p = 5.06625e+06, H = 1.27791e-05
ExecutionTime = 61.8967 s  ClockTime = 62 s

deltaT = 1e-05
Time = 0.00866s

Qdot = 23.2371, T = 2660.04, p = 5.06625e+06, H = 1.27791e-05
ExecutionTime = 61.9252 s  ClockTime = 62 s

deltaT = 1e-05
Time = 0.00867s

Qdot = 23.041, T = 2660.04, p = 5.06625e+06, H = 1.27791e-05
ExecutionTime = 61.9565 s  ClockTime = 62 s

deltaT = 1e-05
Time = 0.00868s

Qdot = 22.88, T = 2660.04, p = 5.06625e+06, H = 1.27791e-05
ExecutionTime = 61.9875 s  ClockTime = 62 s

deltaT = 1e-05
Time = 0.00869s

Qdot = 22.6947, T = 2660.04, p = 5.06625e+06, H = 1.27791e-05
ExecutionTime = 62.018 s  ClockTime = 62 s

deltaT = 1e-05
Time = 0.0087s

Qdot = 22.5439, T = 2660.04, p = 5.06625e+06, H = 1.27791e-05
ExecutionTime = 62.048 s  ClockTime = 62 s

deltaT = 1e-05
Time = 0.00871s

Qdot = 22.3689, T = 2660.04, p = 5.06625e+06, H = 1.27791e-05
ExecutionTime = 62.0775 s  ClockTime = 62 s

deltaT = 1e-05
Time = 0.00872s

Qdot = 22.2281, T = 2660.04, p = 5.06625e+06, H = 1.27791e-05
ExecutionTime = 62.1076 s  ClockTime = 62 s

deltaT = 1e-05
Time = 0.00873s

Qdot = 22.0624, T = 2660.04, p = 5.06625e+06, H = 1.27791e-05
ExecutionTime = 62.1398 s  ClockTime = 62 s

deltaT = 1e-05
Time = 0.00874s

Qdot = 21.931, T = 2660.04, p = 5.06625e+06, H = 1.27791e-05
ExecutionTime = 62.1695 s  ClockTime = 62 s

deltaT = 1e-05
Time = 0.00875s

Qdot = 21.774, T = 2660.04, p = 5.06625e+06, H = 1.27791e-05
ExecutionTime = 62.1995 s  ClockTime = 62 s

deltaT = 1e-05
Time = 0.00876s

Qdot = 21.6512, T = 2660.04, p = 5.06625e+06, H = 1.27791e-05
ExecutionTime = 62.2291 s  ClockTime = 62 s

deltaT = 1e-05
Time = 0.00877s

Qdot = 21.5029, T = 2660.04, p = 5.06625e+06, H = 1.27791e-05
ExecutionTime = 62.2591 s  ClockTime = 63 s

deltaT = 1e-05
Time = 0.00878s

Qdot = 21.3881, T = 2660.04, p = 5.06625e+06, H = 1.27791e-05
ExecutionTime = 62.2887 s  ClockTime = 63 s

deltaT = 1e-05
Time = 0.00879s

Qdot = 21.2476, T = 2660.04, p = 5.06625e+06, H = 1.27791e-05
ExecutionTime = 62.3189 s  ClockTime = 63 s

deltaT = 1e-05
Time = 0.0088s

Qdot = 21.1406, T = 2660.04, p = 5.06625e+06, H = 1.27791e-05
ExecutionTime = 62.3494 s  ClockTime = 63 s

deltaT = 1e-05
Time = 0.00881s

Qdot = 21.0077, T = 2660.04, p = 5.06625e+06, H = 1.27791e-05
ExecutionTime = 62.3804 s  ClockTime = 63 s

deltaT = 1e-05
Time = 0.00882s

Qdot = 20.9076, T = 2660.04, p = 5.06625e+06, H = 1.27791e-05
ExecutionTime = 62.4106 s  ClockTime = 63 s

deltaT = 1e-05
Time = 0.00883s

Qdot = 20.7818, T = 2660.04, p = 5.06625e+06, H = 1.27791e-05
ExecutionTime = 62.4416 s  ClockTime = 63 s

deltaT = 1e-05
Time = 0.00884s

Qdot = 20.6884, T = 2660.04, p = 5.06625e+06, H = 1.27791e-05
ExecutionTime = 62.4726 s  ClockTime = 63 s

deltaT = 1e-05
Time = 0.00885s

Qdot = 20.5694, T = 2660.04, p = 5.06625e+06, H = 1.27791e-05
ExecutionTime = 62.5034 s  ClockTime = 63 s

deltaT = 1e-05
Time = 0.00886s

Qdot = 20.4826, T = 2660.04, p = 5.06625e+06, H = 1.27791e-05
ExecutionTime = 62.5332 s  ClockTime = 63 s

deltaT = 1e-05
Time = 0.00887s

Qdot = 20.3698, T = 2660.04, p = 5.06625e+06, H = 1.27791e-05
ExecutionTime = 62.5628 s  ClockTime = 63 s

deltaT = 1e-05
Time = 0.00888s

Qdot = 20.2884, T = 2660.04, p = 5.06625e+06, H = 1.27791e-05
ExecutionTime = 62.5923 s  ClockTime = 63 s

deltaT = 1e-05
Time = 0.00889s

Qdot = 20.1816, T = 2660.04, p = 5.06625e+06, H = 1.27791e-05
ExecutionTime = 62.6219 s  ClockTime = 63 s

deltaT = 1e-05
Time = 0.0089s

Qdot = 20.1061, T = 2660.04, p = 5.06625e+06, H = 1.27791e-05
ExecutionTime = 62.6541 s  ClockTime = 63 s

deltaT = 1e-05
Time = 0.00891s

Qdot = 20.0048, T = 2660.04, p = 5.06625e+06, H = 1.27791e-05
ExecutionTime = 62.6841 s  ClockTime = 63 s

deltaT = 1e-05
Time = 0.00892s

Qdot = 19.9344, T = 2660.04, p = 5.06625e+06, H = 1.27791e-05
ExecutionTime = 62.7134 s  ClockTime = 63 s

deltaT = 1e-05
Time = 0.00893s

Qdot = 19.8383, T = 2660.04, p = 5.06625e+06, H = 1.27791e-05
ExecutionTime = 62.7427 s  ClockTime = 63 s

deltaT = 1e-05
Time = 0.00894s

Qdot = 19.7732, T = 2660.04, p = 5.06625e+06, H = 1.27791e-05
ExecutionTime = 62.772 s  ClockTime = 63 s

deltaT = 1e-05
Time = 0.00895s

Qdot = 19.6816, T = 2660.04, p = 5.06625e+06, H = 1.27791e-05
ExecutionTime = 62.8015 s  ClockTime = 63 s

deltaT = 1e-05
Time = 0.00896s

Qdot = 19.6213, T = 2660.04, p = 5.06625e+06, H = 1.27791e-05
ExecutionTime = 62.8309 s  ClockTime = 63 s

deltaT = 1e-05
Time = 0.00897s

Qdot = 19.5344, T = 2660.04, p = 5.06625e+06, H = 1.27791e-05
ExecutionTime = 62.864 s  ClockTime = 63 s

deltaT = 1e-05
Time = 0.00898s

Qdot = 19.4784, T = 2660.04, p = 5.06625e+06, H = 1.27791e-05
ExecutionTime = 62.8948 s  ClockTime = 63 s

deltaT = 1e-05
Time = 0.00899s

Qdot = 19.396, T = 2660.04, p = 5.06625e+06, H = 1.27791e-05
ExecutionTime = 62.9257 s  ClockTime = 63 s

deltaT = 1e-05
Time = 0.009s

Qdot = 19.3438, T = 2660.04, p = 5.06625e+06, H = 1.27791e-05
ExecutionTime = 62.9995 s  ClockTime = 63 s

deltaT = 1e-05
Time = 0.00901s

Qdot = 19.2657, T = 2660.04, p = 5.06625e+06, H = 1.27791e-05
ExecutionTime = 63.0295 s  ClockTime = 63 s

deltaT = 1e-05
Time = 0.00902s

Qdot = 19.2175, T = 2660.04, p = 5.06625e+06, H = 1.27791e-05
ExecutionTime = 63.059 s  ClockTime = 63 s

deltaT = 1e-05
Time = 0.00903s

Qdot = 19.1429, T = 2660.04, p = 5.06625e+06, H = 1.27791e-05
ExecutionTime = 63.0886 s  ClockTime = 63 s

deltaT = 1e-05
Time = 0.00904s

Qdot = 19.0985, T = 2660.04, p = 5.06625e+06, H = 1.27791e-05
ExecutionTime = 63.1183 s  ClockTime = 63 s

deltaT = 1e-05
Time = 0.00905s

Qdot = 19.0277, T = 2660.04, p = 5.06625e+06, H = 1.27791e-05
ExecutionTime = 63.1483 s  ClockTime = 63 s

deltaT = 1e-05
Time = 0.00906s

Qdot = 18.9866, T = 2660.04, p = 5.06625e+06, H = 1.27791e-05
ExecutionTime = 63.1792 s  ClockTime = 63 s

deltaT = 1e-05
Time = 0.00907s

Qdot = 18.9189, T = 2660.04, p = 5.06625e+06, H = 1.27791e-05
ExecutionTime = 63.2104 s  ClockTime = 63 s

deltaT = 1e-05
Time = 0.00908s

Qdot = 18.8814, T = 2660.04, p = 5.06625e+06, H = 1.27791e-05
ExecutionTime = 63.2427 s  ClockTime = 64 s

deltaT = 1e-05
Time = 0.00909s

Qdot = 18.817, T = 2660.04, p = 5.06625e+06, H = 1.27791e-05
ExecutionTime = 63.2737 s  ClockTime = 64 s

deltaT = 1e-05
Time = 0.0091s

Qdot = 18.7821, T = 2660.04, p = 5.06625e+06, H = 1.27791e-05
ExecutionTime = 63.3046 s  ClockTime = 64 s

deltaT = 1e-05
Time = 0.00911s

Qdot = 18.7208, T = 2660.04, p = 5.06625e+06, H = 1.27791e-05
ExecutionTime = 63.336 s  ClockTime = 64 s

deltaT = 1e-05
Time = 0.00912s

Qdot = 18.6889, T = 2660.04, p = 5.06625e+06, H = 1.27791e-05
ExecutionTime = 63.3671 s  ClockTime = 64 s

deltaT = 1e-05
Time = 0.00913s

Qdot = 18.6306, T = 2660.04, p = 5.06625e+06, H = 1.27791e-05
ExecutionTime = 63.3966 s  ClockTime = 64 s

deltaT = 1e-05
Time = 0.00914s

Qdot = 18.6013, T = 2660.04, p = 5.06625e+06, H = 1.27791e-05
ExecutionTime = 63.4259 s  ClockTime = 64 s

deltaT = 1e-05
Time = 0.00915s

Qdot = 18.5456, T = 2660.04, p = 5.06625e+06, H = 1.27791e-05
ExecutionTime = 63.4556 s  ClockTime = 64 s

deltaT = 1e-05
Time = 0.00916s

Qdot = 18.5187, T = 2660.04, p = 5.06625e+06, H = 1.27791e-05
ExecutionTime = 63.4848 s  ClockTime = 64 s

deltaT = 1e-05
Time = 0.00917s

Qdot = 18.4655, T = 2660.04, p = 5.06625e+06, H = 1.27791e-05
ExecutionTime = 63.5141 s  ClockTime = 64 s

deltaT = 1e-05
Time = 0.00918s

Qdot = 18.4413, T = 2660.04, p = 5.06625e+06, H = 1.27791e-05
ExecutionTime = 63.5433 s  ClockTime = 64 s

deltaT = 1e-05
Time = 0.00919s

Qdot = 18.3903, T = 2660.04, p = 5.06625e+06, H = 1.27791e-05
ExecutionTime = 63.5751 s  ClockTime = 64 s

deltaT = 1e-05
Time = 0.0092s

Qdot = 18.3683, T = 2660.04, p = 5.06625e+06, H = 1.27791e-05
ExecutionTime = 63.6072 s  ClockTime = 64 s

deltaT = 1e-05
Time = 0.00921s

Qdot = 18.3196, T = 2660.04, p = 5.06625e+06, H = 1.27791e-05
ExecutionTime = 63.6375 s  ClockTime = 64 s

deltaT = 1e-05
Time = 0.00922s

Qdot = 18.2996, T = 2660.04, p = 5.06625e+06, H = 1.27791e-05
ExecutionTime = 63.6669 s  ClockTime = 64 s

deltaT = 1e-05
Time = 0.00923s

Qdot = 18.253, T = 2660.04, p = 5.06625e+06, H = 1.27791e-05
ExecutionTime = 63.6962 s  ClockTime = 64 s

deltaT = 1e-05
Time = 0.00924s

Qdot = 18.2349, T = 2660.04, p = 5.06625e+06, H = 1.27791e-05
ExecutionTime = 63.726 s  ClockTime = 64 s

deltaT = 1e-05
Time = 0.00925s

Qdot = 18.1903, T = 2660.04, p = 5.06625e+06, H = 1.27791e-05
ExecutionTime = 63.7553 s  ClockTime = 64 s

deltaT = 1e-05
Time = 0.00926s

Qdot = 18.1743, T = 2660.04, p = 5.06625e+06, H = 1.27791e-05
ExecutionTime = 63.7848 s  ClockTime = 64 s

deltaT = 1e-05
Time = 0.00927s

Qdot = 18.1311, T = 2660.04, p = 5.06625e+06, H = 1.27791e-05
ExecutionTime = 63.8141 s  ClockTime = 64 s

deltaT = 1e-05
Time = 0.00928s

Qdot = 18.1171, T = 2660.04, p = 5.06625e+06, H = 1.27791e-05
ExecutionTime = 63.8434 s  ClockTime = 64 s

deltaT = 1e-05
Time = 0.00929s

Qdot = 18.0758, T = 2660.04, p = 5.06625e+06, H = 1.27791e-05
ExecutionTime = 63.8726 s  ClockTime = 64 s

deltaT = 1e-05
Time = 0.0093s

Qdot = 18.0632, T = 2660.04, p = 5.06625e+06, H = 1.27791e-05
ExecutionTime = 63.902 s  ClockTime = 64 s

deltaT = 1e-05
Time = 0.00931s

Qdot = 18.0238, T = 2660.04, p = 5.06625e+06, H = 1.27791e-05
ExecutionTime = 63.9314 s  ClockTime = 64 s

deltaT = 1e-05
Time = 0.00932s

Qdot = 18.0126, T = 2660.04, p = 5.06625e+06, H = 1.27791e-05
ExecutionTime = 63.959 s  ClockTime = 64 s

deltaT = 1e-05
Time = 0.00933s

Qdot = 17.9746, T = 2660.04, p = 5.06625e+06, H = 1.27791e-05
ExecutionTime = 63.9865 s  ClockTime = 64 s

deltaT = 1e-05
Time = 0.00934s

Qdot = 17.9649, T = 2660.04, p = 5.06625e+06, H = 1.27791e-05
ExecutionTime = 64.0141 s  ClockTime = 64 s

deltaT = 1e-05
Time = 0.00935s

Qdot = 17.9285, T = 2660.04, p = 5.06625e+06, H = 1.27791e-05
ExecutionTime = 64.0417 s  ClockTime = 64 s

deltaT = 1e-05
Time = 0.00936s

Qdot = 17.9201, T = 2660.04, p = 5.06625e+06, H = 1.27791e-05
ExecutionTime = 64.0695 s  ClockTime = 64 s

deltaT = 1e-05
Time = 0.00937s

Qdot = 17.8849, T = 2660.04, p = 5.06625e+06, H = 1.27791e-05
ExecutionTime = 64.0969 s  ClockTime = 64 s

deltaT = 1e-05
Time = 0.00938s

Qdot = 17.8781, T = 2660.04, p = 5.06625e+06, H = 1.27791e-05
ExecutionTime = 64.1247 s  ClockTime = 64 s

deltaT = 1e-05
Time = 0.00939s

Qdot = 17.844, T = 2660.04, p = 5.06625e+06, H = 1.27791e-05
ExecutionTime = 64.1553 s  ClockTime = 64 s

deltaT = 1e-05
Time = 0.0094s

Qdot = 17.8385, T = 2660.04, p = 5.06625e+06, H = 1.27791e-05
ExecutionTime = 64.183 s  ClockTime = 64 s

deltaT = 1e-05
Time = 0.00941s

Qdot = 17.8056, T = 2660.04, p = 5.06625e+06, H = 1.27791e-05
ExecutionTime = 64.2108 s  ClockTime = 64 s

deltaT = 1e-05
Time = 0.00942s

Qdot = 17.801, T = 2660.04, p = 5.06625e+06, H = 1.27791e-05
ExecutionTime = 64.2389 s  ClockTime = 64 s

deltaT = 1e-05
Time = 0.00943s

Qdot = 17.7696, T = 2660.04, p = 5.06625e+06, H = 1.27791e-05
ExecutionTime = 64.2667 s  ClockTime = 65 s

deltaT = 1e-05
Time = 0.00944s

Qdot = 17.7658, T = 2660.04, p = 5.06625e+06, H = 1.27791e-05
ExecutionTime = 64.2966 s  ClockTime = 65 s

deltaT = 1e-05
Time = 0.00945s

Qdot = 17.7357, T = 2660.04, p = 5.06625e+06, H = 1.27791e-05
ExecutionTime = 64.3247 s  ClockTime = 65 s

deltaT = 1e-05
Time = 0.00946s

Qdot = 17.7329, T = 2660.04, p = 5.06625e+06, H = 1.27791e-05
ExecutionTime = 64.3549 s  ClockTime = 65 s

deltaT = 1e-05
Time = 0.00947s

Qdot = 17.7035, T = 2660.04, p = 5.06625e+06, H = 1.27791e-05
ExecutionTime = 64.3831 s  ClockTime = 65 s

deltaT = 1e-05
Time = 0.00948s

Qdot = 17.7019, T = 2660.04, p = 5.06625e+06, H = 1.27791e-05
ExecutionTime = 64.4135 s  ClockTime = 65 s

deltaT = 1e-05
Time = 0.00949s

Qdot = 17.6733, T = 2660.04, p = 5.06625e+06, H = 1.27791e-05
ExecutionTime = 64.4422 s  ClockTime = 65 s

deltaT = 1e-05
Time = 0.0095s

Qdot = 17.6728, T = 2660.04, p = 5.06625e+06, H = 1.27791e-05
ExecutionTime = 64.5129 s  ClockTime = 65 s

deltaT = 1e-05
Time = 0.00951s

Qdot = 17.6449, T = 2660.04, p = 5.06625e+06, H = 1.27791e-05
ExecutionTime = 64.5415 s  ClockTime = 65 s

deltaT = 1e-05
Time = 0.00952s

Qdot = 17.6453, T = 2660.04, p = 5.06625e+06, H = 1.27791e-05
ExecutionTime = 64.5689 s  ClockTime = 65 s

deltaT = 1e-05
Time = 0.00953s

Qdot = 17.6183, T = 2660.04, p = 5.06625e+06, H = 1.27791e-05
ExecutionTime = 64.5984 s  ClockTime = 65 s

deltaT = 1e-05
Time = 0.00954s

Qdot = 17.6194, T = 2660.04, p = 5.06625e+06, H = 1.27791e-05
ExecutionTime = 64.6266 s  ClockTime = 65 s

deltaT = 1e-05
Time = 0.00955s

Qdot = 17.5935, T = 2660.04, p = 5.06625e+06, H = 1.27791e-05
ExecutionTime = 64.6563 s  ClockTime = 65 s

deltaT = 1e-05
Time = 0.00956s

Qdot = 17.595, T = 2660.04, p = 5.06625e+06, H = 1.27791e-05
ExecutionTime = 64.6845 s  ClockTime = 65 s

deltaT = 1e-05
Time = 0.00957s

Qdot = 17.5697, T = 2660.04, p = 5.06625e+06, H = 1.27791e-05
ExecutionTime = 64.7147 s  ClockTime = 65 s

deltaT = 1e-05
Time = 0.00958s

Qdot = 17.572, T = 2660.04, p = 5.06625e+06, H = 1.27791e-05
ExecutionTime = 64.743 s  ClockTime = 65 s

deltaT = 1e-05
Time = 0.00959s

Qdot = 17.5474, T = 2660.04, p = 5.06625e+06, H = 1.27791e-05
ExecutionTime = 64.7716 s  ClockTime = 65 s

deltaT = 1e-05
Time = 0.0096s

Qdot = 17.5507, T = 2660.04, p = 5.06625e+06, H = 1.27791e-05
ExecutionTime = 64.8 s  ClockTime = 65 s

deltaT = 1e-05
Time = 0.00961s

Qdot = 17.5266, T = 2660.04, p = 5.06625e+06, H = 1.27791e-05
ExecutionTime = 64.8302 s  ClockTime = 65 s

deltaT = 1e-05
Time = 0.00962s

Qdot = 17.5303, T = 2660.04, p = 5.06625e+06, H = 1.27791e-05
ExecutionTime = 64.8584 s  ClockTime = 65 s

deltaT = 1e-05
Time = 0.00963s

Qdot = 17.507, T = 2660.04, p = 5.06625e+06, H = 1.27791e-05
ExecutionTime = 64.8866 s  ClockTime = 65 s

deltaT = 1e-05
Time = 0.00964s

Qdot = 17.5113, T = 2660.04, p = 5.06625e+06, H = 1.27791e-05
ExecutionTime = 64.9175 s  ClockTime = 65 s

deltaT = 1e-05
Time = 0.00965s

Qdot = 17.4884, T = 2660.04, p = 5.06625e+06, H = 1.27791e-05
ExecutionTime = 64.9478 s  ClockTime = 65 s

deltaT = 1e-05
Time = 0.00966s

Qdot = 17.4934, T = 2660.04, p = 5.06625e+06, H = 1.27791e-05
ExecutionTime = 64.9761 s  ClockTime = 65 s

deltaT = 1e-05
Time = 0.00967s

Qdot = 17.471, T = 2660.04, p = 5.06625e+06, H = 1.27791e-05
ExecutionTime = 65.0091 s  ClockTime = 65 s

deltaT = 1e-05
Time = 0.00968s

Qdot = 17.4764, T = 2660.04, p = 5.06625e+06, H = 1.27791e-05
ExecutionTime = 65.0389 s  ClockTime = 65 s

deltaT = 1e-05
Time = 0.00969s

Qdot = 17.4548, T = 2660.04, p = 5.06625e+06, H = 1.27791e-05
ExecutionTime = 65.0666 s  ClockTime = 65 s

deltaT = 1e-05
Time = 0.0097s

Qdot = 17.4606, T = 2660.04, p = 5.06625e+06, H = 1.27791e-05
ExecutionTime = 65.0963 s  ClockTime = 65 s

deltaT = 1e-05
Time = 0.00971s

Qdot = 17.4393, T = 2660.04, p = 5.06625e+06, H = 1.27791e-05
ExecutionTime = 65.1237 s  ClockTime = 65 s

deltaT = 1e-05
Time = 0.00972s

Qdot = 17.4458, T = 2660.04, p = 5.06625e+06, H = 1.27791e-05
ExecutionTime = 65.1514 s  ClockTime = 65 s

deltaT = 1e-05
Time = 0.00973s

Qdot = 17.4249, T = 2660.04, p = 5.06625e+06, H = 1.27791e-05
ExecutionTime = 65.1813 s  ClockTime = 65 s

deltaT = 1e-05
Time = 0.00974s

Qdot = 17.4316, T = 2660.04, p = 5.06625e+06, H = 1.27791e-05
ExecutionTime = 65.2095 s  ClockTime = 65 s

deltaT = 1e-05
Time = 0.00975s

Qdot = 17.4112, T = 2660.04, p = 5.06625e+06, H = 1.27791e-05
ExecutionTime = 65.2376 s  ClockTime = 65 s

deltaT = 1e-05
Time = 0.00976s

Qdot = 17.4115, T = 2660.04, p = 5.06625e+06, H = 1.27791e-05
ExecutionTime = 65.265 s  ClockTime = 66 s

deltaT = 1e-05
Time = 0.00977s

Qdot = 17.4121, T = 2660.04, p = 5.06625e+06, H = 1.27791e-05
ExecutionTime = 65.2936 s  ClockTime = 66 s

deltaT = 1e-05
Time = 0.00978s

Qdot = 17.3921, T = 2660.04, p = 5.06625e+06, H = 1.27791e-05
ExecutionTime = 65.323 s  ClockTime = 66 s

deltaT = 1e-05
Time = 0.00979s

Qdot = 17.3932, T = 2660.04, p = 5.06625e+06, H = 1.27791e-05
ExecutionTime = 65.352 s  ClockTime = 66 s

deltaT = 1e-05
Time = 0.0098s

Qdot = 17.3943, T = 2660.04, p = 5.06625e+06, H = 1.27791e-05
ExecutionTime = 65.3793 s  ClockTime = 66 s

deltaT = 1e-05
Time = 0.00981s

Qdot = 17.375, T = 2660.04, p = 5.06625e+06, H = 1.27791e-05
ExecutionTime = 65.4067 s  ClockTime = 66 s

deltaT = 1e-05
Time = 0.00982s

Qdot = 17.3765, T = 2660.04, p = 5.06625e+06, H = 1.27791e-05
ExecutionTime = 65.4361 s  ClockTime = 66 s

deltaT = 1e-05
Time = 0.00983s

Qdot = 17.3779, T = 2660.04, p = 5.06625e+06, H = 1.27791e-05
ExecutionTime = 65.4636 s  ClockTime = 66 s

deltaT = 1e-05
Time = 0.00984s

Qdot = 17.3592, T = 2660.04, p = 5.06625e+06, H = 1.27791e-05
ExecutionTime = 65.4908 s  ClockTime = 66 s

deltaT = 1e-05
Time = 0.00985s

Qdot = 17.3613, T = 2660.04, p = 5.06625e+06, H = 1.27791e-05
ExecutionTime = 65.5182 s  ClockTime = 66 s

deltaT = 1e-05
Time = 0.00986s

Qdot = 17.3631, T = 2660.04, p = 5.06625e+06, H = 1.27791e-05
ExecutionTime = 65.5459 s  ClockTime = 66 s

deltaT = 1e-05
Time = 0.00987s

Qdot = 17.345, T = 2660.04, p = 5.06625e+06, H = 1.27791e-05
ExecutionTime = 65.5733 s  ClockTime = 66 s

deltaT = 1e-05
Time = 0.00988s

Qdot = 17.3472, T = 2660.04, p = 5.06625e+06, H = 1.27791e-05
ExecutionTime = 65.6006 s  ClockTime = 66 s

deltaT = 1e-05
Time = 0.00989s

Qdot = 17.3495, T = 2660.04, p = 5.06625e+06, H = 1.27791e-05
ExecutionTime = 65.6286 s  ClockTime = 66 s

deltaT = 1e-05
Time = 0.0099s

Qdot = 17.3317, T = 2660.04, p = 5.06625e+06, H = 1.27791e-05
ExecutionTime = 65.6578 s  ClockTime = 66 s

deltaT = 1e-05
Time = 0.00991s

Qdot = 17.3343, T = 2660.04, p = 5.06625e+06, H = 1.27791e-05
ExecutionTime = 65.6857 s  ClockTime = 66 s

deltaT = 1e-05
Time = 0.00992s

Qdot = 17.3373, T = 2660.04, p = 5.06625e+06, H = 1.27791e-05
ExecutionTime = 65.7135 s  ClockTime = 66 s

deltaT = 1e-05
Time = 0.00993s

Qdot = 17.3197, T = 2660.04, p = 5.06625e+06, H = 1.27791e-05
ExecutionTime = 65.7409 s  ClockTime = 66 s

deltaT = 1e-05
Time = 0.00994s

Qdot = 17.3229, T = 2660.04, p = 5.06625e+06, H = 1.27791e-05
ExecutionTime = 65.7683 s  ClockTime = 66 s

deltaT = 1e-05
Time = 0.00995s

Qdot = 17.326, T = 2660.04, p = 5.06625e+06, H = 1.27791e-05
ExecutionTime = 65.7968 s  ClockTime = 66 s

deltaT = 1e-05
Time = 0.00996s

Qdot = 17.3088, T = 2660.04, p = 5.06625e+06, H = 1.27791e-05
ExecutionTime = 65.8242 s  ClockTime = 66 s

deltaT = 1e-05
Time = 0.00997s

Qdot = 17.3123, T = 2660.04, p = 5.06625e+06, H = 1.27791e-05
ExecutionTime = 65.8516 s  ClockTime = 66 s

deltaT = 1e-05
Time = 0.00998s

Qdot = 17.3158, T = 2660.04, p = 5.06625e+06, H = 1.27791e-05
ExecutionTime = 65.8791 s  ClockTime = 66 s

deltaT = 1e-05
Time = 0.00999s

Qdot = 17.2988, T = 2660.04, p = 5.06625e+06, H = 1.27791e-05
ExecutionTime = 65.9072 s  ClockTime = 66 s

deltaT = 1e-05
Time = 0.01s

Qdot = 17.3024, T = 2660.04, p = 5.06625e+06, H = 1.27791e-05
ExecutionTime = 65.9789 s  ClockTime = 66 s

Number of steps = 1098
End

