Invoking wmake libso /home/kol/OpenFOAM/OpenFOAM-12/test/dictionary/dynamicCode/_6aa2b2d81b079abedd43fc929e0626cb4272c2a1
wmake libso /home/kol/OpenFOAM/OpenFOAM-12/test/dictionary/dynamicCode/_6aa2b2d81b079abedd43fc929e0626cb4272c2a1
    ln: ./lnInclude
make[1]: Entering directory '/home/kol/OpenFOAM/OpenFOAM-12/test/dictionary/dynamicCode/_6aa2b2d81b079abedd43fc929e0626cb4272c2a1'
    dep: codeStreamTemplate.C
    Ctoo: codeStreamTemplate.C
codeStreamTemplate.C:31:10: fatal error: dictionary.H: No such file or directory
   31 | #include "dictionary.H"
      |          ^~~~~~~~~~~~~~
compilation terminated.
make[1]: *** [/home/kol/OpenFOAM/OpenFOAM-v2412/wmake/rules/General/transform:38: Make/linux64GccDPInt64Opt/codeStreamTemplate.o] Error 1
make[1]: Target 'libso' not remade because of errors.
make[1]: Leaving directory '/home/kol/OpenFOAM/OpenFOAM-12/test/dictionary/dynamicCode/_6aa2b2d81b079abedd43fc929e0626cb4272c2a1'


--> FOAM FATAL IO ERROR: (openfoam-2412)
Failed wmake "dynamicCode/_6aa2b2d81b079abedd43fc929e0626cb4272c2a1/platforms/linux64GccDPInt64Opt/lib/libcodeStream_6aa2b2d81b079abedd43fc929e0626cb4272c2a1.so"


file: testCalc at line 10 to 17.

    From static void (* Foam::functionEntries::codeStream::getFunction(const Foam::dictionary&, const Foam::dictionary&))(Foam::Ostream&, const Foam::dictionary&)
    in file db/dictionary/functionEntries/codeStream/codeStream.C at line 188.

FOAM exiting

