./Allrun: 295: foamPostProcess: not found
