/*---------------------------------------------------------------------------*\
| =========                 |                                                 |
| \\      /  F ield         | OpenFOAM: The Open Source CFD Toolbox           |
|  \\    /   O peration     | Version:  2412                                  |
|   \\  /    A nd           | Website:  www.openfoam.com                      |
|    \\/     M anipulation  |                                                 |
\*---------------------------------------------------------------------------*/
Build  : _8dbc61e11c-20241220 OPENFOAM=2412 version=v2412
Arch   : "LSB;label=64;scalar=64"
Exec   : chemkinToFoam chemkin/chem.inp chemkin/therm.dat chemkin/transportProperties constant/reactions constant/speciesThermo
Date   : Jun 23 2026
Time   : 11:09:17
Host   : kol-serv
PID    : 842476
I/O    : uncollated
Case   : /home/kol/OpenFOAM/OpenFOAM-12/test/chemistry/gri
nProcs : 1
trapFpe: Floating point exception trapping enabled (FOAM_SIGFPE).
fileModificationChecking : Monitoring run-time modified files using timeStampMaster (fileModificationSkew 5, maxFileModificationPolls 20)
allowSystemOperations : Allowing user-supplied system call operations

// * * * * * * * * * * * * * * * * * * * * * * * * * * * * * * * * * * * * * //
End

