/*---------------------------------------------------------------------------*\
  =========                 |
  \\      /  F ield         | OpenFOAM: The Open Source CFD Toolbox
   \\    /   O peration     | Website:  https://openfoam.org
    \\  /    A nd           | Version:  12
     \\/     M anipulation  |
\*---------------------------------------------------------------------------*/
Build  : 12-0b487fc98b88
Exec   : foamRun -parallel -fileHandler uncollated
Date   : Jun 06 2026
Time   : 19:06:03
Host   : "kol-serv"
PID    : 337960
I/O    : uncollated
Case   : /home/kol/OpenFOAM/OpenFOAM-12/test/IO/fileHandler
nProcs : 4
Slaves : 
3
(
"kol-serv.337961"
"kol-serv.337962"
"kol-serv.337963"
)

Pstream initialised with:
    floatTransfer      : false
    nProcsSimpleSum    : 0
    commsType          : nonBlocking
    polling iterations : 0
sigFpe : Enabling floating point exception trapping (FOAM_SIGFPE).
fileModificationChecking : Monitoring run-time modified files using timeStampMaster (fileModificationSkew 10)
allowSystemOperations : Allowing user-supplied system call operations

// * * * * * * * * * * * * * * * * * * * * * * * * * * * * * * * * * * * * * //
Create time

Create mesh for time = 0.0002

Selecting solver incompressibleFluid
Selecting viscosity model constant
Selecting turbulence model type laminar
Selecting laminar stress model Stokes
No MRF models present

Courant Number mean: 0 max: 0
Creating fvModels from "constant/fvModels"

Selecting finite volume model type clouds
    Name: clouds
Selecting parcelCloud cloud
Constructing particle forces
    Selecting particle force sphereDrag
    Selecting particle force gravity
Constructing cloud functions
    none
Constructing particle injection models
Creating injector: model1
Selecting injection model manualInjection
    Constructing 3-D injection
Selecting distribution type fixedValue
    min/average/max value = 0.006/0.006/0.006
Selecting dispersion model none
Selecting patch interaction model none
Selecting stochastic collision model none
Selecting surface film model none
Selecting U integration scheme Euler

PIMPLE: No convergence criteria found


PIMPLE: Operating solver in transient mode with 1 outer corrector
PIMPLE: Operating solver in PISO mode



Starting time loop

Courant Number mean: 0 max: 0
Time = 0.00025s


Solving 3-D cloud cloud
Cloud: cloud
    Current number of parcels       = 71
    Current mass in system          = 0.00774083
    Linear momentum                 = (0 -1.89607e-05 0)
   |Linear momentum|                = 1.89607e-05
    Linear kinetic energy           = 2.32216e-08
    model1:
        number of parcels added     = 71
        mass introduced             = 0.00774083

smoothSolver:  Solving for Ux, Initial residual = 0, Final residual = 0, No Iterations 0
smoothSolver:  Solving for Uy, Initial residual = 0, Final residual = 0, No Iterations 0
smoothSolver:  Solving for Uz, Initial residual = 0, Final residual = 0, No Iterations 0
GAMG:  Solving for p, Initial residual = 0, Final residual = 0, No Iterations 0
time step continuity errors : sum local = 0, global = 0
GAMG:  Solving for p, Initial residual = 0, Final residual = 0, No Iterations 0
time step continuity errors : sum local = 0, global = 0, cumulative = 0
ExecutionTime = 0.165298 s  ClockTime = 0 s

End

Finalising parallel run
